_rank14
     RDKit          3D

 23 26  0  0  0  0  0  0  0  0999 V2000
   28.7349    0.9089   -7.9934 Br  0  0  0  0  0  0  0  0  0  0  0  0
   27.5413   -0.3908   -8.7043 C   0  0  0  0  0  0  0  0  0  0  0  0
   27.7824   -1.7154   -8.4385 C   0  0  0  0  0  0  0  0  0  0  0  0
   26.9074   -2.6482   -8.9611 C   0  0  0  0  0  0  0  0  0  0  0  0
   25.8233   -2.2472   -9.7284 C   0  0  0  0  0  0  0  0  0  0  0  0
   25.5713   -0.9201  -10.0018 C   0  0  0  0  0  0  0  0  0  0  0  0
   24.3980   -0.5327  -10.8275 C   0  0  2  0  0  0  0  0  0  0  0  0
   23.1839   -0.2884   -9.9573 C   0  0  0  0  0  0  0  0  0  0  0  0
   21.9573   -0.2479  -10.8591 C   0  0  2  0  0  0  0  0  0  0  0  0
   20.7857    0.2911  -10.2224 C   0  0  0  0  0  0  0  0  0  0  0  0
   20.6407    1.6350   -9.9981 C   0  0  0  0  0  0  0  0  0  0  0  0
   19.5199    2.1685   -9.3869 C   0  0  0  0  0  0  0  0  0  0  0  0
   18.4937    1.3251   -8.9792 C   0  0  0  0  0  0  0  0  0  0  0  0
   18.6229   -0.0286   -9.1969 C   0  0  0  0  0  0  0  0  0  0  0  0
   17.0522   -1.2789   -8.5682 I   0  0  0  0  0  0  0  0  0  0  0  0
   19.7640   -0.5252   -9.8138 C   0  0  0  0  0  0  0  0  0  0  0  0
   21.7983   -1.5722  -11.4229 N   0  0  0  0  0  0  0  0  0  0  0  0
   20.8077   -2.4104  -11.6103 N   0  0  0  0  0  0  0  0  0  0  0  0
   21.2848   -3.4898  -12.1845 N   0  0  0  0  0  0  0  0  0  0  0  0
   22.5763   -3.3796  -12.3805 N   0  0  0  0  0  0  0  0  0  0  0  0
   22.9026   -2.1616  -11.8968 C   0  0  0  0  0  0  0  0  0  0  0  0
   24.1880   -1.5061  -11.8494 N   0  0  0  0  0  0  0  0  0  0  0  0
   26.4516    0.0008   -9.4747 C   0  0  0  0  0  0  0  0  0  0  0  0
  1  2  1  0
  2  3  2  0
  3  4  1  0
  4  5  2  0
  5  6  1  0
  7  6  1  1
  8  7  1  1
  8  9  1  0
  9 10  1  1
 10 11  2  0
 11 12  1  0
 12 13  2  0
 13 14  1  0
 14 15  1  0
 14 16  2  0
  9 17  1  0
 17 18  1  0
 18 19  2  0
 19 20  1  0
 20 21  2  0
 21 22  1  0
  6 23  2  0
 23  2  1  0
 22  7  1  0
 16 10  1  0
 21 17  1  0
M  END
$$$$
