_rank10
     RDKit          3D

 22 24  0  0  0  0  0  0  0  0999 V2000
   24.5119   -0.7209  -12.7837 O   0  0  0  0  0  0  0  0  0  0  0  0
   25.3200   -0.2100  -11.9959 N   0  0  0  0  0  4  0  0  0  0  0  0
   26.3305    0.5851  -12.5305 O   0  0  0  0  0  1  0  0  0  0  0  0
   25.3167   -0.3570  -10.5984 C   0  0  0  0  0  0  0  0  0  0  0  0
   24.2362   -0.9329   -9.9749 C   0  0  0  0  0  0  0  0  0  0  0  0
   23.1380   -1.3637  -10.7617 N   0  0  0  0  0  0  0  0  0  0  0  0
   21.9353   -1.8560  -10.0879 C   0  0  0  0  0  0  0  0  0  0  0  0
   20.7704   -1.0186  -10.4472 C   0  0  0  0  0  0  0  0  0  0  0  0
   20.5491    0.1335   -9.7169 C   0  0  0  0  0  0  0  0  0  0  0  0
   19.4913    0.9761   -9.9775 C   0  0  0  0  0  0  0  0  0  0  0  0
   19.2958    2.1054   -9.2425 F   0  0  0  0  0  0  0  0  0  0  0  0
   18.6245    0.6370  -11.0193 C   0  0  0  0  0  0  0  0  0  0  0  0
   18.8688   -0.5137  -11.7283 C   0  0  0  0  0  0  0  0  0  0  0  0
   19.9219   -1.3656  -11.4794 C   0  0  0  0  0  0  0  0  0  0  0  0
   20.1779   -2.4926  -12.1595 F   0  0  0  0  0  0  0  0  0  0  0  0
   24.2326   -1.0785   -8.6146 C   0  0  0  0  0  0  0  0  0  0  0  0
   25.3144   -0.6475   -7.8603 C   0  0  0  0  0  0  0  0  0  0  0  0
   26.3955   -0.0713   -8.4830 C   0  0  0  0  0  0  0  0  0  0  0  0
   27.5771    0.4405   -8.0472 N   0  0  0  0  0  0  0  0  0  0  0  0
   28.2401    0.8635   -9.0826 O   0  0  0  0  0  0  0  0  0  0  0  0
   27.5587    0.6563  -10.1675 N   0  0  0  0  0  0  0  0  0  0  0  0
   26.3992    0.0755   -9.8561 C   0  0  0  0  0  0  0  0  0  0  0  0
  1  2  2  0
  2  3  1  0
  2  4  1  0
  4  5  2  0
  5  6  1  0
  7  6  1  1
  7  8  1  0
  8  9  2  0
  9 10  1  0
 10 11  1  0
 10 12  2  0
 12 13  1  0
 13 14  2  0
 14 15  1  0
  5 16  1  0
 16 17  2  0
 17 18  1  0
 18 19  2  0
 19 20  1  0
 20 21  1  0
 21 22  2  0
 22  4  1  0
 14  8  1  0
 22 18  1  0
M  CHG  2   2   1   3  -1
M  END
$$$$
