_rank14
     RDKit          3D

 22 24  0  0  0  0  0  0  0  0999 V2000
   27.0683    0.7021  -12.4052 O   0  0  0  0  0  0  0  0  0  0  0  0
   25.9689    0.2005  -12.1323 N   0  0  0  0  0  4  0  0  0  0  0  0
   25.0680    0.0090  -13.1767 O   0  0  0  0  0  1  0  0  0  0  0  0
   25.5368   -0.1982  -10.8560 C   0  0  0  0  0  0  0  0  0  0  0  0
   24.3245   -0.8285  -10.7117 C   0  0  0  0  0  0  0  0  0  0  0  0
   23.5283   -1.0586  -11.8621 N   0  0  0  0  0  0  0  0  0  0  0  0
   22.2502   -1.7559  -11.7099 C   0  0  0  0  0  0  0  0  0  0  0  0
   21.3294   -0.9563  -10.8731 C   0  0  0  0  0  0  0  0  0  0  0  0
   21.5297    0.4096  -10.8105 C   0  0  0  0  0  0  0  0  0  0  0  0
   20.7244    1.2360  -10.0586 C   0  0  0  0  0  0  0  0  0  0  0  0
   20.9435    2.5789  -10.0140 F   0  0  0  0  0  0  0  0  0  0  0  0
   19.6750    0.6544   -9.3428 C   0  0  0  0  0  0  0  0  0  0  0  0
   19.4995   -0.7054   -9.4237 C   0  0  0  0  0  0  0  0  0  0  0  0
   20.2964   -1.5441  -10.1709 C   0  0  0  0  0  0  0  0  0  0  0  0
   20.1417   -2.8729  -10.2635 F   0  0  0  0  0  0  0  0  0  0  0  0
   23.9035   -1.2191   -9.4700 C   0  0  0  0  0  0  0  0  0  0  0  0
   24.6942   -0.9822   -8.3547 C   0  0  0  0  0  0  0  0  0  0  0  0
   25.9067   -0.3518   -8.4982 C   0  0  0  0  0  0  0  0  0  0  0  0
   26.8895    0.0180   -7.6347 N   0  0  0  0  0  0  0  0  0  0  0  0
   27.8337    0.5920   -8.3197 O   0  0  0  0  0  0  0  0  0  0  0  0
   27.5230    0.6170   -9.5795 N   0  0  0  0  0  0  0  0  0  0  0  0
   26.3318    0.0423   -9.7515 C   0  0  0  0  0  0  0  0  0  0  0  0
  1  2  2  0
  2  3  1  0
  2  4  1  0
  4  5  2  0
  5  6  1  0
  7  6  1  1
  7  8  1  0
  8  9  2  0
  9 10  1  0
 10 11  1  0
 10 12  2  0
 12 13  1  0
 13 14  2  0
 14 15  1  0
  5 16  1  0
 16 17  2  0
 17 18  1  0
 18 19  2  0
 19 20  1  0
 20 21  1  0
 21 22  2  0
 22  4  1  0
 14  8  1  0
 22 18  1  0
M  CHG  2   2   1   3  -1
M  END
$$$$
