_rank11
     RDKit          3D

 22 24  0  0  0  0  0  0  0  0999 V2000
   24.5040   -0.0925  -13.0647 O   0  0  0  0  0  0  0  0  0  0  0  0
   25.3777    0.2003  -12.2367 N   0  0  0  0  0  4  0  0  0  0  0  0
   26.4701    0.9398  -12.6828 O   0  0  0  0  0  1  0  0  0  0  0  0
   25.3742   -0.1459  -10.8748 C   0  0  0  0  0  0  0  0  0  0  0  0
   24.2917   -0.8014  -10.3397 C   0  0  0  0  0  0  0  0  0  0  0  0
   23.1917   -1.1107  -11.1793 N   0  0  0  0  0  0  0  0  0  0  0  0
   21.9912   -1.6998  -10.5839 C   0  0  0  0  0  0  0  0  0  0  0  0
   20.8502   -0.7670  -10.7077 C   0  0  0  0  0  0  0  0  0  0  0  0
   20.4277   -0.1036   -9.5714 C   0  0  0  0  0  0  0  0  0  0  0  0
   19.3745    0.7838   -9.5881 C   0  0  0  0  0  0  0  0  0  0  0  0
   18.9783    1.4244   -8.4540 F   0  0  0  0  0  0  0  0  0  0  0  0
   18.7249    1.0070  -10.8047 C   0  0  0  0  0  0  0  0  0  0  0  0
   19.1662    0.3341  -11.9176 C   0  0  0  0  0  0  0  0  0  0  0  0
   20.2173   -0.5558  -11.9162 C   0  0  0  0  0  0  0  0  0  0  0  0
   20.6635   -1.2221  -12.9910 F   0  0  0  0  0  0  0  0  0  0  0  0
   24.2879   -1.1408   -9.0144 C   0  0  0  0  0  0  0  0  0  0  0  0
   25.3715   -0.8266   -8.2069 C   0  0  0  0  0  0  0  0  0  0  0  0
   26.4545   -0.1710   -8.7412 C   0  0  0  0  0  0  0  0  0  0  0  0
   27.6381    0.2686   -8.2374 N   0  0  0  0  0  0  0  0  0  0  0  0
   28.3025    0.8335   -9.2017 O   0  0  0  0  0  0  0  0  0  0  0  0
   27.6201    0.7868  -10.3046 N   0  0  0  0  0  0  0  0  0  0  0  0
   26.4585    0.1715  -10.0789 C   0  0  0  0  0  0  0  0  0  0  0  0
  1  2  2  0
  2  3  1  0
  2  4  1  0
  4  5  2  0
  5  6  1  0
  7  6  1  1
  7  8  1  0
  8  9  2  0
  9 10  1  0
 10 11  1  0
 10 12  2  0
 12 13  1  0
 13 14  2  0
 14 15  1  0
  5 16  1  0
 16 17  2  0
 17 18  1  0
 18 19  2  0
 19 20  1  0
 20 21  1  0
 21 22  2  0
 22  4  1  0
 14  8  1  0
 22 18  1  0
M  CHG  2   2   1   3  -1
M  END
$$$$
