_rank15
     RDKit          3D

 23 26  0  0  0  0  0  0  0  0999 V2000
   16.7642   -0.7813  -11.5219 Br  0  0  0  0  0  0  0  0  0  0  0  0
   18.3479   -0.1188  -10.7022 C   0  0  0  0  0  0  0  0  0  0  0  0
   18.2962    1.0958  -10.0653 C   0  0  0  0  0  0  0  0  0  0  0  0
   19.4538    1.5645   -9.4745 C   0  0  0  0  0  0  0  0  0  0  0  0
   20.6249    0.8228   -9.5296 C   0  0  0  0  0  0  0  0  0  0  0  0
   20.6887   -0.3979  -10.1662 C   0  0  0  0  0  0  0  0  0  0  0  0
   21.9633   -1.1611  -10.2015 C   0  0  2  0  0  0  0  0  0  0  0  0
   23.1430   -0.2524   -9.9307 C   0  0  0  0  0  0  0  0  0  0  0  0
   24.4122   -0.9965  -10.3245 C   0  0  2  0  0  0  0  0  0  0  0  0
   25.6185   -0.3906   -9.8284 C   0  0  0  0  0  0  0  0  0  0  0  0
   26.0797    0.8033  -10.3177 C   0  0  0  0  0  0  0  0  0  0  0  0
   27.2382    1.3986   -9.8507 C   0  0  0  0  0  0  0  0  0  0  0  0
   27.9735    0.7769   -8.8491 C   0  0  0  0  0  0  0  0  0  0  0  0
   27.5245   -0.4238   -8.3457 C   0  0  0  0  0  0  0  0  0  0  0  0
   28.6599   -1.3398   -6.8301 I   0  0  0  0  0  0  0  0  0  0  0  0
   26.3564   -0.9891   -8.8412 C   0  0  0  0  0  0  0  0  0  0  0  0
   24.3650   -1.1914  -11.7586 N   0  0  0  0  0  0  0  0  0  0  0  0
   25.1977   -1.0546  -12.7621 N   0  0  0  0  0  0  0  0  0  0  0  0
   24.5711   -1.3900  -13.8654 N   0  0  0  0  0  0  0  0  0  0  0  0
   23.3362   -1.7468  -13.6084 N   0  0  0  0  0  0  0  0  0  0  0  0
   23.2051   -1.6208  -12.2702 C   0  0  0  0  0  0  0  0  0  0  0  0
   22.0591   -1.8788  -11.4310 N   0  0  0  0  0  0  0  0  0  0  0  0
   19.5271   -0.8545  -10.7518 C   0  0  0  0  0  0  0  0  0  0  0  0
  1  2  1  0
  2  3  2  0
  3  4  1  0
  4  5  2  0
  5  6  1  0
  7  6  1  6
  8  7  1  1
  8  9  1  0
  9 10  1  6
 10 11  2  0
 11 12  1  0
 12 13  2  0
 13 14  1  0
 14 15  1  0
 14 16  2  0
  9 17  1  0
 17 18  1  0
 18 19  2  0
 19 20  1  0
 20 21  2  0
 21 22  1  0
  6 23  2  0
 23  2  1  0
 22  7  1  0
 16 10  1  0
 21 17  1  0
M  END
$$$$
