_rank6
     RDKit          3D

 23 26  0  0  0  0  0  0  0  0999 V2000
   18.8521    2.3046  -10.6610 Br  0  0  0  0  0  0  0  0  0  0  0  0
   19.5784    0.5908  -10.2679 C   0  0  0  0  0  0  0  0  0  0  0  0
   18.8411   -0.2707   -9.4948 C   0  0  0  0  0  0  0  0  0  0  0  0
   19.3809   -1.5118   -9.2174 C   0  0  0  0  0  0  0  0  0  0  0  0
   20.6289   -1.8651   -9.7097 C   0  0  0  0  0  0  0  0  0  0  0  0
   21.3782   -1.0083  -10.4869 C   0  0  0  0  0  0  0  0  0  0  0  0
   22.7107   -1.4262  -10.9953 C   0  0  2  0  0  0  0  0  0  0  0  0
   23.7864   -1.1689   -9.9621 C   0  0  0  0  0  0  0  0  0  0  0  0
   25.1396   -1.2780  -10.6524 C   0  0  2  0  0  0  0  0  0  0  0  0
   26.2494   -1.3766   -9.7430 C   0  0  0  0  0  0  0  0  0  0  0  0
   27.0523   -2.4862   -9.7029 C   0  0  0  0  0  0  0  0  0  0  0  0
   28.1234   -2.5959   -8.8338 C   0  0  0  0  0  0  0  0  0  0  0  0
   28.4099   -1.5521   -7.9627 C   0  0  0  0  0  0  0  0  0  0  0  0
   27.6131   -0.4291   -7.9895 C   0  0  0  0  0  0  0  0  0  0  0  0
   28.0728    1.1337   -6.6585 I   0  0  0  0  0  0  0  0  0  0  0  0
   26.5469   -0.3575   -8.8770 C   0  0  0  0  0  0  0  0  0  0  0  0
   25.2200   -0.1926  -11.6076 N   0  0  0  0  0  0  0  0  0  0  0  0
   26.1137    0.7025  -11.9529 N   0  0  0  0  0  0  0  0  0  0  0  0
   25.6045    1.4456  -12.9073 N   0  0  0  0  0  0  0  0  0  0  0  0
   24.3873    1.0567  -13.1997 N   0  0  0  0  0  0  0  0  0  0  0  0
   24.1429    0.0161  -12.3742 C   0  0  0  0  0  0  0  0  0  0  0  0
   22.9606   -0.8037  -12.2546 N   0  0  0  0  0  0  0  0  0  0  0  0
   20.8286    0.2270  -10.7566 C   0  0  0  0  0  0  0  0  0  0  0  0
  1  2  1  0
  2  3  2  0
  3  4  1  0
  4  5  2  0
  5  6  1  0
  7  6  1  1
  8  7  1  1
  8  9  1  0
  9 10  1  1
 10 11  2  0
 11 12  1  0
 12 13  2  0
 13 14  1  0
 14 15  1  0
 14 16  2  0
  9 17  1  0
 17 18  1  0
 18 19  2  0
 19 20  1  0
 20 21  2  0
 21 22  1  0
  6 23  2  0
 23  2  1  0
 22  7  1  0
 16 10  1  0
 21 17  1  0
M  END
$$$$
