_rank19
     RDKit          3D

 22 24  0  0  0  0  0  0  0  0999 V2000
   21.6788   -2.5445  -13.5170 O   0  0  0  0  0  0  0  0  0  0  0  0
   22.4145   -1.8004  -12.8541 N   0  0  0  0  0  4  0  0  0  0  0  0
   23.6505   -1.4605  -13.3983 O   0  0  0  0  0  1  0  0  0  0  0  0
   22.1203   -1.2597  -11.5908 C   0  0  0  0  0  0  0  0  0  0  0  0
   23.0846   -0.5603  -10.9061 C   0  0  0  0  0  0  0  0  0  0  0  0
   24.3664   -0.4041  -11.4917 N   0  0  0  0  0  0  0  0  0  0  0  0
   25.2159    0.7031  -11.0497 C   0  0  0  0  0  0  0  0  0  0  0  0
   26.1971    0.2260  -10.0512 C   0  0  0  0  0  0  0  0  0  0  0  0
   27.4145    0.8754   -9.9756 C   0  0  0  0  0  0  0  0  0  0  0  0
   28.3907    0.5033   -9.0781 C   0  0  0  0  0  0  0  0  0  0  0  0
   29.5820    1.1602   -9.0243 F   0  0  0  0  0  0  0  0  0  0  0  0
   28.1214   -0.5690   -8.2241 C   0  0  0  0  0  0  0  0  0  0  0  0
   26.9031   -1.1957   -8.3213 C   0  0  0  0  0  0  0  0  0  0  0  0
   25.9178   -0.8350   -9.2133 C   0  0  0  0  0  0  0  0  0  0  0  0
   24.7226   -1.4331   -9.3237 F   0  0  0  0  0  0  0  0  0  0  0  0
   22.7989   -0.0316   -9.6770 C   0  0  0  0  0  0  0  0  0  0  0  0
   21.5401   -0.1977   -9.1176 C   0  0  0  0  0  0  0  0  0  0  0  0
   20.5751   -0.8971   -9.8017 C   0  0  0  0  0  0  0  0  0  0  0  0
   19.2828   -1.2290   -9.5412 N   0  0  0  0  0  0  0  0  0  0  0  0
   18.8300   -1.9116  -10.5508 O   0  0  0  0  0  0  0  0  0  0  0  0
   19.7525   -2.0431  -11.4541 N   0  0  0  0  0  0  0  0  0  0  0  0
   20.8634   -1.4306  -11.0423 C   0  0  0  0  0  0  0  0  0  0  0  0
  1  2  2  0
  2  3  1  0
  2  4  1  0
  4  5  2  0
  5  6  1  0
  7  6  1  1
  7  8  1  0
  8  9  2  0
  9 10  1  0
 10 11  1  0
 10 12  2  0
 12 13  1  0
 13 14  2  0
 14 15  1  0
  5 16  1  0
 16 17  2  0
 17 18  1  0
 18 19  2  0
 19 20  1  0
 20 21  1  0
 21 22  2  0
 22  4  1  0
 14  8  1  0
 22 18  1  0
M  CHG  2   2   1   3  -1
M  END
$$$$
