_rank4
     RDKit          3D

 22 24  0  0  0  0  0  0  0  0999 V2000
   26.2474   -0.4515  -12.9485 O   0  0  0  0  0  0  0  0  0  0  0  0
   25.3863   -0.0284  -12.1650 N   0  0  0  0  0  4  0  0  0  0  0  0
   24.3025    0.6596  -12.7046 O   0  0  0  0  0  1  0  0  0  0  0  0
   25.3969   -0.1761  -10.7676 C   0  0  0  0  0  0  0  0  0  0  0  0
   24.2446   -0.5333  -10.1100 C   0  0  0  0  0  0  0  0  0  0  0  0
   23.0604   -0.7404  -10.8618 N   0  0  0  0  0  0  0  0  0  0  0  0
   21.9777   -1.5302  -10.2728 C   0  0  0  0  0  0  0  0  0  0  0  0
   20.6676   -0.9366  -10.6172 C   0  0  0  0  0  0  0  0  0  0  0  0
   20.0829   -0.0797   -9.7042 C   0  0  0  0  0  0  0  0  0  0  0  0
   18.8654    0.5209   -9.9364 C   0  0  0  0  0  0  0  0  0  0  0  0
   18.3112    1.3613   -9.0199 F   0  0  0  0  0  0  0  0  0  0  0  0
   18.2161    0.2417  -11.1415 C   0  0  0  0  0  0  0  0  0  0  0  0
   18.8206   -0.6134  -12.0301 C   0  0  0  0  0  0  0  0  0  0  0  0
   20.0370   -1.2211  -11.8119 C   0  0  0  0  0  0  0  0  0  0  0  0
   20.6440   -2.0580  -12.6660 F   0  0  0  0  0  0  0  0  0  0  0  0
   24.2540   -0.6794   -8.7498 C   0  0  0  0  0  0  0  0  0  0  0  0
   25.4212   -0.4689   -8.0299 C   0  0  0  0  0  0  0  0  0  0  0  0
   26.5742   -0.1115   -8.6867 C   0  0  0  0  0  0  0  0  0  0  0  0
   27.8453    0.1600   -8.2885 N   0  0  0  0  0  0  0  0  0  0  0  0
   28.5461    0.4493   -9.3446 O   0  0  0  0  0  0  0  0  0  0  0  0
   27.8049    0.3816  -10.4078 N   0  0  0  0  0  0  0  0  0  0  0  0
   26.5647    0.0358  -10.0597 C   0  0  0  0  0  0  0  0  0  0  0  0
  1  2  2  0
  2  3  1  0
  2  4  1  0
  4  5  2  0
  5  6  1  0
  7  6  1  1
  7  8  1  0
  8  9  2  0
  9 10  1  0
 10 11  1  0
 10 12  2  0
 12 13  1  0
 13 14  2  0
 14 15  1  0
  5 16  1  0
 16 17  2  0
 17 18  1  0
 18 19  2  0
 19 20  1  0
 20 21  1  0
 21 22  2  0
 22  4  1  0
 14  8  1  0
 22 18  1  0
M  CHG  2   2   1   3  -1
M  END
$$$$
