_rank4
     RDKit          3D

 23 26  0  0  0  0  0  0  0  0999 V2000
   19.1521    2.3934  -10.3413 Br  0  0  0  0  0  0  0  0  0  0  0  0
   19.7760    0.5966  -10.3040 C   0  0  0  0  0  0  0  0  0  0  0  0
   18.9303   -0.3803   -9.8415 C   0  0  0  0  0  0  0  0  0  0  0  0
   19.3967   -1.6806   -9.8201 C   0  0  0  0  0  0  0  0  0  0  0  0
   20.6803   -1.9776  -10.2545 C   0  0  0  0  0  0  0  0  0  0  0  0
   21.5383   -1.0050  -10.7210 C   0  0  0  0  0  0  0  0  0  0  0  0
   22.9056   -1.3657  -11.1780 C   0  0  2  0  0  0  0  0  0  0  0  0
   23.9533   -0.7896  -10.2499 C   0  0  0  0  0  0  0  0  0  0  0  0
   25.3042   -0.8836  -10.9468 C   0  0  2  0  0  0  0  0  0  0  0  0
   26.4256   -0.6750  -10.0708 C   0  0  0  0  0  0  0  0  0  0  0  0
   27.3533    0.3051  -10.3079 C   0  0  0  0  0  0  0  0  0  0  0  0
   28.4371    0.5180   -9.4746 C   0  0  0  0  0  0  0  0  0  0  0  0
   28.6068   -0.2822   -8.3515 C   0  0  0  0  0  0  0  0  0  0  0  0
   27.6837   -1.2723   -8.0979 C   0  0  0  0  0  0  0  0  0  0  0  0
   27.9685   -2.4668   -6.3898 I   0  0  0  0  0  0  0  0  0  0  0  0
   26.6090   -1.4542   -8.9589 C   0  0  0  0  0  0  0  0  0  0  0  0
   25.2515   -0.0087  -12.0995 N   0  0  0  0  0  0  0  0  0  0  0  0
   26.0335    0.8928  -12.6424 N   0  0  0  0  0  0  0  0  0  0  0  0
   25.4344    1.3692  -13.7084 N   0  0  0  0  0  0  0  0  0  0  0  0
   24.2674    0.7972  -13.8803 N   0  0  0  0  0  0  0  0  0  0  0  0
   24.1511   -0.0781  -12.8584 C   0  0  0  0  0  0  0  0  0  0  0  0
   23.0718   -0.9834  -12.5426 N   0  0  0  0  0  0  0  0  0  0  0  0
   21.0611    0.2884  -10.7373 C   0  0  0  0  0  0  0  0  0  0  0  0
  1  2  1  0
  2  3  2  0
  3  4  1  0
  4  5  2  0
  5  6  1  0
  7  6  1  1
  8  7  1  1
  8  9  1  0
  9 10  1  1
 10 11  2  0
 11 12  1  0
 12 13  2  0
 13 14  1  0
 14 15  1  0
 14 16  2  0
  9 17  1  0
 17 18  1  0
 18 19  2  0
 19 20  1  0
 20 21  2  0
 21 22  1  0
  6 23  2  0
 23  2  1  0
 22  7  1  0
 16 10  1  0
 21 17  1  0
M  END
$$$$
