_rank5
     RDKit          3D

 23 26  0  0  0  0  0  0  0  0999 V2000
   19.2419    2.3516   -9.7358 Br  0  0  0  0  0  0  0  0  0  0  0  0
   19.7414    0.5500  -10.0877 C   0  0  0  0  0  0  0  0  0  0  0  0
   18.7989   -0.4342   -9.9249 C   0  0  0  0  0  0  0  0  0  0  0  0
   19.1757   -1.7379  -10.1841 C   0  0  0  0  0  0  0  0  0  0  0  0
   20.4679   -2.0310  -10.5951 C   0  0  0  0  0  0  0  0  0  0  0  0
   21.4226   -1.0511  -10.7619 C   0  0  0  0  0  0  0  0  0  0  0  0
   22.7957   -1.4076  -11.2048 C   0  0  2  0  0  0  0  0  0  0  0  0
   23.8024   -1.1395  -10.1068 C   0  0  0  0  0  0  0  0  0  0  0  0
   25.1948   -1.1820  -10.7225 C   0  0  2  0  0  0  0  0  0  0  0  0
   26.2556   -1.2650   -9.7549 C   0  0  0  0  0  0  0  0  0  0  0  0
   27.0404   -2.3822   -9.6393 C   0  0  0  0  0  0  0  0  0  0  0  0
   28.0644   -2.4771   -8.7137 C   0  0  0  0  0  0  0  0  0  0  0  0
   28.3204   -1.4097   -7.8618 C   0  0  0  0  0  0  0  0  0  0  0  0
   27.5412   -0.2787   -7.9643 C   0  0  0  0  0  0  0  0  0  0  0  0
   27.9539    1.3198   -6.6606 I   0  0  0  0  0  0  0  0  0  0  0  0
   26.5225   -0.2225   -8.9069 C   0  0  0  0  0  0  0  0  0  0  0  0
   25.2876   -0.0695  -11.6449 N   0  0  0  0  0  0  0  0  0  0  0  0
   26.1651    0.8657  -11.9175 N   0  0  0  0  0  0  0  0  0  0  0  0
   25.6822    1.6151  -12.8805 N   0  0  0  0  0  0  0  0  0  0  0  0
   24.4982    1.1909  -13.2502 N   0  0  0  0  0  0  0  0  0  0  0  0
   24.2474    0.1209  -12.4655 C   0  0  0  0  0  0  0  0  0  0  0  0
   23.0915   -0.7435  -12.4325 N   0  0  0  0  0  0  0  0  0  0  0  0
   21.0343    0.2456  -10.5002 C   0  0  0  0  0  0  0  0  0  0  0  0
  1  2  1  0
  2  3  2  0
  3  4  1  0
  4  5  2  0
  5  6  1  0
  7  6  1  1
  8  7  1  1
  8  9  1  0
  9 10  1  1
 10 11  2  0
 11 12  1  0
 12 13  2  0
 13 14  1  0
 14 15  1  0
 14 16  2  0
  9 17  1  0
 17 18  1  0
 18 19  2  0
 19 20  1  0
 20 21  2  0
 21 22  1  0
  6 23  2  0
 23  2  1  0
 22  7  1  0
 16 10  1  0
 21 17  1  0
M  END
$$$$
