_rank13
     RDKit          3D

 22 24  0  0  0  0  0  0  0  0999 V2000
   21.5670   -3.1085  -11.3421 O   0  0  0  0  0  0  0  0  0  0  0  0
   21.0684   -2.0210  -11.6635 N   0  0  0  0  0  4  0  0  0  0  0  0
   20.3032   -1.9784  -12.8262 O   0  0  0  0  0  1  0  0  0  0  0  0
   21.2019   -0.8113  -10.9611 C   0  0  0  0  0  0  0  0  0  0  0  0
   22.4502   -0.2752  -10.7555 C   0  0  0  0  0  0  0  0  0  0  0  0
   23.5845   -0.9635  -11.2555 N   0  0  0  0  0  0  0  0  0  0  0  0
   24.7714   -0.1927  -11.6296 C   0  0  0  0  0  0  0  0  0  0  0  0
   25.8013   -0.2973  -10.5733 C   0  0  0  0  0  0  0  0  0  0  0  0
   27.1234   -0.1237  -10.9362 C   0  0  0  0  0  0  0  0  0  0  0  0
   28.1517   -0.2026  -10.0233 C   0  0  0  0  0  0  0  0  0  0  0  0
   29.4461   -0.0276  -10.4073 F   0  0  0  0  0  0  0  0  0  0  0  0
   27.8262   -0.4676   -8.6908 C   0  0  0  0  0  0  0  0  0  0  0  0
   26.5041   -0.6355   -8.3589 C   0  0  0  0  0  0  0  0  0  0  0  0
   25.4656   -0.5595   -9.2602 C   0  0  0  0  0  0  0  0  0  0  0  0
   24.1693   -0.7198   -8.9566 F   0  0  0  0  0  0  0  0  0  0  0  0
   22.5813    0.9035  -10.0735 C   0  0  0  0  0  0  0  0  0  0  0  0
   21.4604    1.5613   -9.5879 C   0  0  0  0  0  0  0  0  0  0  0  0
   20.2115    1.0258   -9.7930 C   0  0  0  0  0  0  0  0  0  0  0  0
   18.9509    1.4079   -9.4572 N   0  0  0  0  0  0  0  0  0  0  0  0
   18.1237    0.5131   -9.9104 O   0  0  0  0  0  0  0  0  0  0  0  0
   18.7727   -0.4296  -10.5223 N   0  0  0  0  0  0  0  0  0  0  0  0
   20.0791   -0.1638  -10.4815 C   0  0  0  0  0  0  0  0  0  0  0  0
  1  2  2  0
  2  3  1  0
  2  4  1  0
  4  5  2  0
  5  6  1  0
  7  6  1  1
  7  8  1  0
  8  9  2  0
  9 10  1  0
 10 11  1  0
 10 12  2  0
 12 13  1  0
 13 14  2  0
 14 15  1  0
  5 16  1  0
 16 17  2  0
 17 18  1  0
 18 19  2  0
 19 20  1  0
 20 21  1  0
 21 22  2  0
 22  4  1  0
 14  8  1  0
 22 18  1  0
M  CHG  2   2   1   3  -1
M  END
$$$$
