_rank3
     RDKit          3D

 23 26  0  0  0  0  0  0  0  0999 V2000
   18.9452    2.2804  -10.0318 Br  0  0  0  0  0  0  0  0  0  0  0  0
   19.5040    0.4708  -10.2118 C   0  0  0  0  0  0  0  0  0  0  0  0
   18.5694   -0.5216  -10.0531 C   0  0  0  0  0  0  0  0  0  0  0  0
   18.9894   -1.8310  -10.1866 C   0  0  0  0  0  0  0  0  0  0  0  0
   20.3156   -2.1215  -10.4719 C   0  0  0  0  0  0  0  0  0  0  0  0
   21.2628   -1.1334  -10.6333 C   0  0  0  0  0  0  0  0  0  0  0  0
   22.6733   -1.4875  -10.9393 C   0  0  2  0  0  0  0  0  0  0  0  0
   23.6288   -0.6703  -10.0967 C   0  0  0  0  0  0  0  0  0  0  0  0
   25.0233   -0.8126  -10.6921 C   0  0  2  0  0  0  0  0  0  0  0  0
   26.0754   -0.3603   -9.8222 C   0  0  0  0  0  0  0  0  0  0  0  0
   26.5287    0.9326   -9.8505 C   0  0  0  0  0  0  0  0  0  0  0  0
   27.5398    1.3826   -9.0201 C   0  0  0  0  0  0  0  0  0  0  0  0
   28.1286    0.5050   -8.1180 C   0  0  0  0  0  0  0  0  0  0  0  0
   27.6853   -0.7982   -8.0762 C   0  0  0  0  0  0  0  0  0  0  0  0
   28.5968   -2.1021   -6.6999 I   0  0  0  0  0  0  0  0  0  0  0  0
   26.6676   -1.2113   -8.9266 C   0  0  0  0  0  0  0  0  0  0  0  0
   24.9945   -0.1908  -11.9996 N   0  0  0  0  0  0  0  0  0  0  0  0
   25.7585    0.6336  -12.6746 N   0  0  0  0  0  0  0  0  0  0  0  0
   25.2014    0.8473  -13.8435 N   0  0  0  0  0  0  0  0  0  0  0  0
   24.0801    0.1772  -13.9534 N   0  0  0  0  0  0  0  0  0  0  0  0
   23.9485   -0.4822  -12.7822 C   0  0  0  0  0  0  0  0  0  0  0  0
   22.9026   -1.3752  -12.3431 N   0  0  0  0  0  0  0  0  0  0  0  0
   20.8312    0.1689  -10.4977 C   0  0  0  0  0  0  0  0  0  0  0  0
  1  2  1  0
  2  3  2  0
  3  4  1  0
  4  5  2  0
  5  6  1  0
  7  6  1  6
  8  7  1  1
  8  9  1  0
  9 10  1  1
 10 11  2  0
 11 12  1  0
 12 13  2  0
 13 14  1  0
 14 15  1  0
 14 16  2  0
  9 17  1  0
 17 18  1  0
 18 19  2  0
 19 20  1  0
 20 21  2  0
 21 22  1  0
  6 23  2  0
 23  2  1  0
 22  7  1  0
 16 10  1  0
 21 17  1  0
M  END
$$$$
