_rank13
     RDKit          3D

 16 16  0  0  0  0  0  0  0  0999 V2000
   28.0869   -1.0505   -8.9850 C   0  0  0  0  0  0  0  0  0  0  0  0
   26.8433    0.2276   -8.7392 S   0  0  1  0  0  6  0  0  0  0  0  0
   26.7589    0.4264   -7.2861 O   0  0  0  0  0  0  0  0  0  0  0  0
   27.4438    1.4946   -9.3287 O   0  0  0  0  0  0  0  0  0  0  0  0
   25.4270   -0.1562   -9.6005 C   0  0  0  0  0  0  0  0  0  0  0  0
   24.2534   -0.3489   -8.8598 C   0  0  0  0  0  0  0  0  0  0  0  0
   23.0448   -0.6702   -9.4245 C   0  0  0  0  0  0  0  0  0  0  0  0
   22.9614   -0.8148  -10.7877 C   0  0  0  0  0  0  0  0  0  0  0  0
   21.7417   -1.1489  -11.4627 C   0  0  0  0  0  0  0  0  0  0  0  0
   20.7523   -1.4245  -11.9907 N   0  0  0  0  0  0  0  0  0  0  0  0
   24.0953   -0.6291  -11.5110 C   0  0  0  0  0  0  0  0  0  0  0  0
   25.3415   -0.3003  -10.9571 C   0  0  0  0  0  0  0  0  0  0  0  0
   26.7363   -0.0686  -11.9422 S   0  0  1  0  0  6  0  0  0  0  0  0
   28.1323   -1.0419  -11.5357 C   0  0  0  0  0  0  0  0  0  0  0  0
   26.4072   -0.1139  -13.4231 O   0  0  0  0  0  0  0  0  0  0  0  0
   27.1594    1.3893  -11.7449 O   0  0  0  0  0  0  0  0  0  0  0  0
  1  2  1  1
  2  3  2  0
  2  4  2  0
  2  5  1  6
  5  6  2  0
  6  7  1  0
  7  8  2  0
  8  9  1  0
  9 10  3  0
  8 11  1  0
 11 12  2  0
 13 12  1  1
 14 13  1  6
 13 15  2  0
 13 16  2  0
 12  5  1  0
M  END
$$$$
