_rank11
     RDKit          3D

 16 16  0  0  0  0  0  0  0  0999 V2000
   27.2345   -0.1320  -13.2415 C   0  0  0  0  0  0  0  0  0  0  0  0
   26.4963    0.9652  -12.0202 S   0  0  1  0  0  6  0  0  0  0  0  0
   27.6133    1.4645  -11.2071 O   0  0  0  0  0  0  0  0  0  0  0  0
   25.9575    2.1469  -12.8118 O   0  0  0  0  0  0  0  0  0  0  0  0
   25.1954    0.1908  -11.2436 C   0  0  0  0  0  0  0  0  0  0  0  0
   23.9592    0.1879  -11.9031 C   0  0  0  0  0  0  0  0  0  0  0  0
   22.8270   -0.3919  -11.3886 C   0  0  0  0  0  0  0  0  0  0  0  0
   22.8893   -1.0072  -10.1624 C   0  0  0  0  0  0  0  0  0  0  0  0
   21.7577   -1.6378   -9.5485 C   0  0  0  0  0  0  0  0  0  0  0  0
   20.8428   -2.1305   -9.0447 N   0  0  0  0  0  0  0  0  0  0  0  0
   24.0846   -1.0079   -9.5183 C   0  0  0  0  0  0  0  0  0  0  0  0
   25.2551   -0.4225  -10.0234 C   0  0  0  0  0  0  0  0  0  0  0  0
   26.7408   -0.4737   -9.1518 S   0  0  1  0  0  6  0  0  0  0  0  0
   27.9732   -1.5340   -9.7986 C   0  0  0  0  0  0  0  0  0  0  0  0
   27.2721    0.9137   -8.8411 O   0  0  0  0  0  0  0  0  0  0  0  0
   26.3997   -1.0132   -7.7605 O   0  0  0  0  0  0  0  0  0  0  0  0
  1  2  1  1
  2  3  2  0
  2  4  2  0
  2  5  1  1
  5  6  2  0
  6  7  1  0
  7  8  2  0
  8  9  1  0
  9 10  3  0
  8 11  1  0
 11 12  2  0
 13 12  1  6
 14 13  1  6
 13 15  2  0
 13 16  2  0
 12  5  1  0
M  END
$$$$
