_rank9
     RDKit          3D

 16 16  0  0  0  0  0  0  0  0999 V2000
   26.5806    0.7353  -13.8373 C   0  0  0  0  0  0  0  0  0  0  0  0
   26.8688    0.5195  -12.0736 S   0  0  1  0  0  6  0  0  0  0  0  0
   28.0762   -0.3106  -11.9663 O   0  0  0  0  0  0  0  0  0  0  0  0
   27.2297    1.9015  -11.5509 O   0  0  0  0  0  0  0  0  0  0  0  0
   25.4430    0.0008  -11.3035 C   0  0  0  0  0  0  0  0  0  0  0  0
   24.2816   -0.0815  -12.0830 C   0  0  0  0  0  0  0  0  0  0  0  0
   23.0637   -0.4762  -11.5894 C   0  0  0  0  0  0  0  0  0  0  0  0
   22.9578   -0.8126  -10.2621 C   0  0  0  0  0  0  0  0  0  0  0  0
   21.7268   -1.2353   -9.6613 C   0  0  0  0  0  0  0  0  0  0  0  0
   20.7446   -1.5835   -9.1635 N   0  0  0  0  0  0  0  0  0  0  0  0
   24.0797   -0.7351   -9.5015 C   0  0  0  0  0  0  0  0  0  0  0  0
   25.3351   -0.3349   -9.9828 C   0  0  0  0  0  0  0  0  0  0  0  0
   26.7189   -0.2722   -8.9577 S   0  0  1  0  0  6  0  0  0  0  0  0
   27.9260   -1.5108   -9.2223 C   0  0  0  0  0  0  0  0  0  0  0  0
   27.3197    1.1200   -8.8888 O   0  0  0  0  0  0  0  0  0  0  0  0
   26.2018   -0.4769   -7.5315 O   0  0  0  0  0  0  0  0  0  0  0  0
  1  2  1  1
  2  3  2  0
  2  4  2  0
  2  5  1  1
  5  6  2  0
  6  7  1  0
  7  8  2  0
  8  9  1  0
  9 10  3  0
  8 11  1  0
 11 12  2  0
 13 12  1  6
 14 13  1  6
 13 15  2  0
 13 16  2  0
 12  5  1  0
M  END
$$$$
