_rank2
     RDKit          3D

 16 16  0  0  0  0  0  0  0  0999 V2000
   26.9861    0.5710   -7.7687 C   0  0  0  0  0  0  0  0  0  0  0  0
   27.0088   -0.0373   -9.4627 S   0  0  1  0  0  6  0  0  0  0  0  0
   27.9940    0.7917  -10.1700 O   0  0  0  0  0  0  0  0  0  0  0  0
   27.5853   -1.4424   -9.3799 O   0  0  0  0  0  0  0  0  0  0  0  0
   25.4241   -0.1336  -10.0746 C   0  0  0  0  0  0  0  0  0  0  0  0
   24.4151   -0.5419   -9.1923 C   0  0  0  0  0  0  0  0  0  0  0  0
   23.0979   -0.6706   -9.5544 C   0  0  0  0  0  0  0  0  0  0  0  0
   22.7294   -0.3883  -10.8469 C   0  0  0  0  0  0  0  0  0  0  0  0
   21.3780   -0.4952  -11.3130 C   0  0  0  0  0  0  0  0  0  0  0  0
   20.2952   -0.5786  -11.7055 N   0  0  0  0  0  0  0  0  0  0  0  0
   23.7026    0.0080  -11.7067 C   0  0  0  0  0  0  0  0  0  0  0  0
   25.0549    0.1471  -11.3605 C   0  0  0  0  0  0  0  0  0  0  0  0
   26.2329    0.6671  -12.5057 S   0  0  1  0  0  6  0  0  0  0  0  0
   27.6551   -0.3411  -12.6544 C   0  0  0  0  0  0  0  0  0  0  0  0
   25.6161    1.0044  -13.8508 O   0  0  0  0  0  0  0  0  0  0  0  0
   26.7256    2.0324  -12.0194 O   0  0  0  0  0  0  0  0  0  0  0  0
  1  2  1  1
  2  3  2  0
  2  4  2  0
  2  5  1  6
  5  6  2  0
  6  7  1  0
  7  8  2  0
  8  9  1  0
  9 10  3  0
  8 11  1  0
 11 12  2  0
 13 12  1  1
 14 13  1  6
 13 15  2  0
 13 16  2  0
 12  5  1  0
M  END
$$$$
