_rank8
     RDKit          3D

 19 20  0  0  0  0  0  0  0  0999 V2000
   27.5476    1.3871  -12.8784 C   0  0  0  0  0  0  0  0  0  0  0  0
   28.1431    0.7239  -11.6547 C   0  0  0  0  0  0  0  0  0  0  0  0
   27.1470    0.7892  -10.5159 C   0  0  2  0  0  0  0  0  0  0  0  0
   27.7130    0.0583   -9.3090 C   0  0  0  0  0  0  0  0  0  0  0  0
   27.1253   -1.3390   -9.2827 C   0  0  0  0  0  0  0  0  0  0  0  0
   25.6747   -1.2189   -8.8781 C   0  0  1  0  0  0  0  0  0  0  0  0
   25.5440   -0.7810   -7.4992 N   0  0  0  0  0  0  0  0  0  0  0  0
   24.9890   -0.2974   -9.8489 C   0  0  2  0  0  0  0  0  0  0  0  0
   23.8787   -0.9302  -10.4383 O   0  0  0  0  0  0  0  0  0  0  0  0
   22.5681   -0.5470  -10.3424 C   0  0  0  0  0  0  0  0  0  0  0  0
   22.1079    0.7368  -10.3500 C   0  0  0  0  0  0  0  0  0  0  0  0
   20.7458    0.9993  -10.2453 C   0  0  0  0  0  0  0  0  0  0  0  0
   20.3003    2.2655  -10.2537 F   0  0  0  0  0  0  0  0  0  0  0  0
   19.8515   -0.0460  -10.1327 C   0  0  0  0  0  0  0  0  0  0  0  0
   20.3077   -1.3431  -10.1242 C   0  0  0  0  0  0  0  0  0  0  0  0
   19.3869   -2.4610  -10.0069 C   0  0  0  0  0  0  0  0  0  0  0  0
   18.6574   -3.3442   -9.9263 N   0  0  0  0  0  0  0  0  0  0  0  0
   21.6401   -1.5851  -10.2272 C   0  0  0  0  0  0  0  0  0  0  0  0
   25.8712    0.1428  -10.9974 C   0  0  0  0  0  0  0  0  0  0  0  0
  2  1  1  1
  3  2  1  6
  4  3  1  6
  5  4  1  6
  5  6  1  0
  6  7  1  1
  6  8  1  0
  8  9  1  6
  9 10  1  0
 10 11  2  0
 11 12  1  0
 12 13  1  0
 12 14  2  0
 14 15  1  0
 15 16  1  0
 16 17  3  0
 15 18  2  0
 19  8  1  6
 19  3  1  0
 18 10  1  0
M  END
$$$$
