_rank11
     RDKit          3D

 19 20  0  0  0  0  0  0  0  0999 V2000
   21.6731    2.3555   -8.9854 C   0  0  0  0  0  0  0  0  0  0  0  0
   20.5140    1.3911   -9.1200 C   0  0  0  0  0  0  0  0  0  0  0  0
   20.7399    0.5028  -10.3255 C   0  0  2  0  0  0  0  0  0  0  0  0
   19.6413   -0.5460  -10.3913 C   0  0  0  0  0  0  0  0  0  0  0  0
   20.1731   -1.8281   -9.7815 C   0  0  0  0  0  0  0  0  0  0  0  0
   21.1743   -2.4153  -10.7486 C   0  0  1  0  0  0  0  0  0  0  0  0
   20.5283   -2.8732  -11.9665 N   0  0  0  0  0  0  0  0  0  0  0  0
   22.2401   -1.3861  -11.0067 C   0  0  2  0  0  0  0  0  0  0  0  0
   23.5153   -1.9038  -10.7126 O   0  0  0  0  0  0  0  0  0  0  0  0
   24.7062   -1.2308  -10.7609 C   0  0  0  0  0  0  0  0  0  0  0  0
   25.3919   -0.8994  -11.8923 C   0  0  0  0  0  0  0  0  0  0  0  0
   26.5982   -0.2112  -11.8109 C   0  0  0  0  0  0  0  0  0  0  0  0
   27.2673    0.1117  -12.9288 F   0  0  0  0  0  0  0  0  0  0  0  0
   27.1067    0.1399  -10.5767 C   0  0  0  0  0  0  0  0  0  0  0  0
   26.4213   -0.1906   -9.4314 C   0  0  0  0  0  0  0  0  0  0  0  0
   26.9350    0.1676   -8.1203 C   0  0  0  0  0  0  0  0  0  0  0  0
   27.3503    0.4566   -7.0893 N   0  0  0  0  0  0  0  0  0  0  0  0
   25.2448   -0.8625   -9.5254 C   0  0  0  0  0  0  0  0  0  0  0  0
   22.0971   -0.1369  -10.1640 C   0  0  0  0  0  0  0  0  0  0  0  0
  2  1  1  1
  3  2  1  1
  4  3  1  6
  5  4  1  6
  5  6  1  0
  6  7  1  6
  6  8  1  0
  8  9  1  1
  9 10  1  0
 10 11  2  0
 11 12  1  0
 12 13  1  0
 12 14  2  0
 14 15  1  0
 15 16  1  0
 16 17  3  0
 15 18  2  0
 19  8  1  6
 19  3  1  0
 18 10  1  0
M  END
$$$$
