_rank4
     RDKit          3D

 19 20  0  0  0  0  0  0  0  0999 V2000
   19.7841    1.8050   -8.7900 C   0  0  0  0  0  0  0  0  0  0  0  0
   19.0408    0.8355   -9.6840 C   0  0  0  0  0  0  0  0  0  0  0  0
   20.0031    0.2501  -10.6963 C   0  0  2  0  0  0  0  0  0  0  0  0
   19.4246   -1.0405  -11.2537 C   0  0  0  0  0  0  0  0  0  0  0  0
   20.0495   -2.2018  -10.5057 C   0  0  0  0  0  0  0  0  0  0  0  0
   21.4847   -2.3222  -10.9622 C   0  0  1  0  0  0  0  0  0  0  0  0
   21.5654   -2.7430  -12.3502 N   0  0  0  0  0  0  0  0  0  0  0  0
   22.1710   -1.0077  -10.7117 C   0  0  2  0  0  0  0  0  0  0  0  0
   23.3141   -1.1864   -9.9103 O   0  0  0  0  0  0  0  0  0  0  0  0
   24.5956   -0.8117  -10.2120 C   0  0  0  0  0  0  0  0  0  0  0  0
   25.1175   -0.6852  -11.4656 C   0  0  0  0  0  0  0  0  0  0  0  0
   26.4409   -0.2952  -11.6436 C   0  0  0  0  0  0  0  0  0  0  0  0
   26.9476   -0.1728  -12.8806 F   0  0  0  0  0  0  0  0  0  0  0  0
   27.2336   -0.0337  -10.5444 C   0  0  0  0  0  0  0  0  0  0  0  0
   26.7148   -0.1589   -9.2772 C   0  0  0  0  0  0  0  0  0  0  0  0
   27.5283    0.1107   -8.1038 C   0  0  0  0  0  0  0  0  0  0  0  0
   28.1692    0.3125   -7.1725 N   0  0  0  0  0  0  0  0  0  0  0  0
   25.4211   -0.5405   -9.1179 C   0  0  0  0  0  0  0  0  0  0  0  0
   21.3089    0.0002   -9.9823 C   0  0  0  0  0  0  0  0  0  0  0  0
  2  1  1  1
  3  2  1  1
  4  3  1  6
  5  4  1  6
  5  6  1  0
  6  7  1  6
  6  8  1  0
  8  9  1  1
  9 10  1  0
 10 11  2  0
 11 12  1  0
 12 13  1  0
 12 14  2  0
 14 15  1  0
 15 16  1  0
 16 17  3  0
 15 18  2  0
 19  8  1  6
 19  3  1  0
 18 10  1  0
M  END
$$$$
