_rank7
     RDKit          3D

 19 20  0  0  0  0  0  0  0  0999 V2000
   19.3629    1.5728   -8.9518 C   0  0  0  0  0  0  0  0  0  0  0  0
   18.7210    0.7917  -10.0786 C   0  0  0  0  0  0  0  0  0  0  0  0
   19.8013    0.2581  -10.9961 C   0  0  2  0  0  0  0  0  0  0  0  0
   19.3721   -1.0919  -11.5479 C   0  0  0  0  0  0  0  0  0  0  0  0
   20.0295   -2.1748  -10.7151 C   0  0  0  0  0  0  0  0  0  0  0  0
   21.5002   -2.1898  -11.0605 C   0  0  1  0  0  0  0  0  0  0  0  0
   21.7196   -2.6435  -12.4229 N   0  0  0  0  0  0  0  0  0  0  0  0
   22.0580   -0.8162  -10.8076 C   0  0  2  0  0  0  0  0  0  0  0  0
   23.1475   -0.8759   -9.9187 O   0  0  0  0  0  0  0  0  0  0  0  0
   24.4743   -0.7671  -10.2370 C   0  0  0  0  0  0  0  0  0  0  0  0
   25.0232   -0.9942  -11.4647 C   0  0  0  0  0  0  0  0  0  0  0  0
   26.3924   -0.8498  -11.6637 C   0  0  0  0  0  0  0  0  0  0  0  0
   26.9254   -1.0749  -12.8749 F   0  0  0  0  0  0  0  0  0  0  0  0
   27.2035   -0.4738  -10.6121 C   0  0  0  0  0  0  0  0  0  0  0  0
   26.6576   -0.2431   -9.3713 C   0  0  0  0  0  0  0  0  0  0  0  0
   27.4896    0.1538   -8.2481 C   0  0  0  0  0  0  0  0  0  0  0  0
   28.1386    0.4635   -7.3527 N   0  0  0  0  0  0  0  0  0  0  0  0
   25.3193   -0.3878   -9.1910 C   0  0  0  0  0  0  0  0  0  0  0  0
   21.0649    0.1382  -10.1798 C   0  0  0  0  0  0  0  0  0  0  0  0
  2  1  1  1
  3  2  1  1
  4  3  1  6
  5  4  1  6
  5  6  1  0
  6  7  1  6
  6  8  1  0
  8  9  1  1
  9 10  1  0
 10 11  2  0
 11 12  1  0
 12 13  1  0
 12 14  2  0
 14 15  1  0
 15 16  1  0
 16 17  3  0
 15 18  2  0
 19  8  1  6
 19  3  1  0
 18 10  1  0
M  END
$$$$
