_rank18
     RDKit          3D

 19 20  0  0  0  0  0  0  0  0999 V2000
   21.4141    1.7503  -14.1951 C   0  0  0  0  0  0  0  0  0  0  0  0
   21.0282    1.4867  -12.7552 C   0  0  0  0  0  0  0  0  0  0  0  0
   21.6355    0.1738  -12.3069 C   0  0  2  0  0  0  0  0  0  0  0  0
   20.5928   -0.6301  -11.5469 C   0  0  0  0  0  0  0  0  0  0  0  0
   20.8196   -0.4176  -10.0630 C   0  0  0  0  0  0  0  0  0  0  0  0
   22.0767   -1.1629   -9.6799 C   0  0  1  0  0  0  0  0  0  0  0  0
   21.8923   -2.6002   -9.7822 N   0  0  0  0  0  0  0  0  0  0  0  0
   23.2041   -0.6583  -10.5379 C   0  0  2  0  0  0  0  0  0  0  0  0
   24.2678   -0.1941   -9.7419 O   0  0  0  0  0  0  0  0  0  0  0  0
   25.3816   -0.8965   -9.3683 C   0  0  0  0  0  0  0  0  0  0  0  0
   25.4449   -2.2427   -9.1588 C   0  0  0  0  0  0  0  0  0  0  0  0
   26.6413   -2.8429   -8.7797 C   0  0  0  0  0  0  0  0  0  0  0  0
   26.6959   -4.1684   -8.5754 F   0  0  0  0  0  0  0  0  0  0  0  0
   27.7741   -2.0720   -8.6138 C   0  0  0  0  0  0  0  0  0  0  0  0
   27.7184   -0.7141   -8.8231 C   0  0  0  0  0  0  0  0  0  0  0  0
   28.8967    0.1194   -8.6553 C   0  0  0  0  0  0  0  0  0  0  0  0
   29.8345    0.7700   -8.5286 N   0  0  0  0  0  0  0  0  0  0  0  0
   26.5439   -0.1412   -9.1929 C   0  0  0  0  0  0  0  0  0  0  0  0
   22.8184    0.5025  -11.4294 C   0  0  0  0  0  0  0  0  0  0  0  0
  2  1  1  1
  3  2  1  1
  4  3  1  6
  5  4  1  6
  5  6  1  0
  6  7  1  6
  6  8  1  0
  8  9  1  1
  9 10  1  0
 10 11  2  0
 11 12  1  0
 12 13  1  0
 12 14  2  0
 14 15  1  0
 15 16  1  0
 16 17  3  0
 15 18  2  0
 19  8  1  6
 19  3  1  0
 18 10  1  0
M  END
$$$$
