_rank6
     RDKit          3D

 19 20  0  0  0  0  0  0  0  0999 V2000
   19.0747    1.7704   -9.7333 C   0  0  0  0  0  0  0  0  0  0  0  0
   18.5469    0.5791  -10.5041 C   0  0  0  0  0  0  0  0  0  0  0  0
   19.7121   -0.2194  -11.0501 C   0  0  2  0  0  0  0  0  0  0  0  0
   19.5999   -1.6605  -10.5793 C   0  0  0  0  0  0  0  0  0  0  0  0
   20.4970   -1.8350   -9.3696 C   0  0  0  0  0  0  0  0  0  0  0  0
   21.9282   -1.8125   -9.8530 C   0  0  1  0  0  0  0  0  0  0  0  0
   22.2330   -2.9812  -10.6600 N   0  0  0  0  0  0  0  0  0  0  0  0
   22.1572   -0.5212  -10.5890 C   0  0  2  0  0  0  0  0  0  0  0  0
   23.2397    0.1853  -10.0323 O   0  0  0  0  0  0  0  0  0  0  0  0
   24.5620    0.0550  -10.3615 C   0  0  0  0  0  0  0  0  0  0  0  0
   25.0745    0.0508  -11.6254 C   0  0  0  0  0  0  0  0  0  0  0  0
   26.4431   -0.0896  -11.8319 C   0  0  0  0  0  0  0  0  0  0  0  0
   26.9403   -0.0927  -13.0787 F   0  0  0  0  0  0  0  0  0  0  0  0
   27.2904   -0.2258  -10.7509 C   0  0  0  0  0  0  0  0  0  0  0  0
   26.7813   -0.2225   -9.4736 C   0  0  0  0  0  0  0  0  0  0  0  0
   27.6520   -0.3640   -8.3189 C   0  0  0  0  0  0  0  0  0  0  0  0
   28.3408   -0.4878   -7.4084 N   0  0  0  0  0  0  0  0  0  0  0  0
   25.4432   -0.0847   -9.2864 C   0  0  0  0  0  0  0  0  0  0  0  0
   20.9772    0.4255  -10.5393 C   0  0  0  0  0  0  0  0  0  0  0  0
  2  1  1  1
  3  2  1  1
  4  3  1  6
  5  4  1  6
  5  6  1  0
  6  7  1  6
  6  8  1  0
  8  9  1  1
  9 10  1  0
 10 11  2  0
 11 12  1  0
 12 13  1  0
 12 14  2  0
 14 15  1  0
 15 16  1  0
 16 17  3  0
 15 18  2  0
 19  8  1  6
 19  3  1  0
 18 10  1  0
M  END
$$$$
