_rank16
     RDKit          3D

 19 20  0  0  0  0  0  0  0  0999 V2000
   18.8027   -1.9414   -9.3107 C   0  0  0  0  0  0  0  0  0  0  0  0
   19.7256   -2.3060  -10.4539 C   0  0  0  0  0  0  0  0  0  0  0  0
   20.5630   -1.1000  -10.8250 C   0  0  2  0  0  0  0  0  0  0  0  0
   20.4188   -0.8252  -12.3133 C   0  0  0  0  0  0  0  0  0  0  0  0
   21.6094   -1.4365  -13.0255 C   0  0  0  0  0  0  0  0  0  0  0  0
   22.8197   -0.5913  -12.7041 C   0  0  1  0  0  0  0  0  0  0  0  0
   22.7189    0.7278  -13.3042 N   0  0  0  0  0  0  0  0  0  0  0  0
   22.9757   -0.5402  -11.2092 C   0  0  2  0  0  0  0  0  0  0  0  0
   24.2549   -0.9842  -10.8255 O   0  0  0  0  0  0  0  0  0  0  0  0
   24.9307   -0.6531   -9.6821 C   0  0  0  0  0  0  0  0  0  0  0  0
   24.3711   -0.4336   -8.4579 C   0  0  0  0  0  0  0  0  0  0  0  0
   25.1676   -0.1016   -7.3667 C   0  0  0  0  0  0  0  0  0  0  0  0
   24.6097    0.1129   -6.1648 F   0  0  0  0  0  0  0  0  0  0  0  0
   26.5348    0.0069   -7.5220 C   0  0  0  0  0  0  0  0  0  0  0  0
   27.1065   -0.2130   -8.7530 C   0  0  0  0  0  0  0  0  0  0  0  0
   28.5430   -0.1052   -8.9427 C   0  0  0  0  0  0  0  0  0  0  0  0
   29.6773   -0.0250   -9.1037 N   0  0  0  0  0  0  0  0  0  0  0  0
   26.3171   -0.5364   -9.8098 C   0  0  0  0  0  0  0  0  0  0  0  0
   21.9933   -1.4181  -10.4640 C   0  0  0  0  0  0  0  0  0  0  0  0
  2  1  1  1
  3  2  1  6
  4  3  1  6
  5  4  1  6
  5  6  1  0
  6  7  1  1
  6  8  1  0
  8  9  1  6
  9 10  1  0
 10 11  2  0
 11 12  1  0
 12 13  1  0
 12 14  2  0
 14 15  1  0
 15 16  1  0
 16 17  3  0
 15 18  2  0
 19  8  1  6
 19  3  1  0
 18 10  1  0
M  END
$$$$
