_rank12
     RDKit          3D

 20 21  0  0  0  0  0  0  0  0999 V2000
   19.1486   -4.0776  -10.7440 N   0  0  0  0  0  0  0  0  0  0  0  0
   19.6697   -3.0467  -10.6834 C   0  0  0  0  0  0  0  0  0  0  0  0
   20.3109   -1.7473  -10.6263 C   0  0  0  0  0  0  0  0  0  0  0  0
   19.6034   -0.6777  -10.0721 C   0  0  0  0  0  0  0  0  0  0  0  0
   20.1970    0.5630  -10.0100 C   0  0  0  0  0  0  0  0  0  0  0  0
   19.5129    1.5938   -9.4749 F   0  0  0  0  0  0  0  0  0  0  0  0
   21.4733    0.7381  -10.4910 C   0  0  0  0  0  0  0  0  0  0  0  0
   22.2020   -0.3051  -11.0474 C   0  0  0  0  0  0  0  0  0  0  0  0
   23.4855   -0.1145  -11.5275 O   0  0  0  0  0  0  0  0  0  0  0  0
   24.5226   -0.0880  -10.5742 C   0  0  0  0  0  0  0  0  0  0  0  0
   24.2660    0.1202   -9.2737 N   0  0  0  0  0  0  0  0  0  0  0  0
   25.2382    0.1482   -8.3570 C   0  0  0  0  0  0  0  0  0  0  0  0
   26.5694   -0.0352   -8.6880 C   0  0  0  0  0  0  0  0  0  0  0  0
   27.6257   -0.0041   -7.6876 C   0  0  0  0  0  0  0  0  0  0  0  0
   28.7723    0.3818   -7.9479 O   0  0  0  0  0  0  0  0  0  0  0  0
   27.3269   -0.4237   -6.4008 O   0  0  0  0  0  0  0  0  0  0  0  0
   26.8300   -0.2481  -10.0188 C   0  0  0  0  0  0  0  0  0  0  0  0
   25.8288   -0.2758  -10.9547 C   0  0  0  0  0  0  0  0  0  0  0  0
   26.2081   -0.5745  -12.8115 Br  0  0  0  0  0  0  0  0  0  0  0  0
   21.5906   -1.5390  -11.1006 C   0  0  0  0  0  0  0  0  0  0  0  0
  1  2  3  0
  2  3  1  0
  3  4  2  0
  4  5  1  0
  5  6  1  0
  5  7  2  0
  7  8  1  0
  8  9  1  0
  9 10  1  0
 10 11  2  0
 11 12  1  0
 12 13  2  0
 13 14  1  0
 14 15  2  0
 14 16  1  0
 13 17  1  0
 17 18  2  0
 18 19  1  0
  8 20  2  0
 20  3  1  0
 18 10  1  0
M  END
$$$$
