_rank9
     RDKit          3D

 20 21  0  0  0  0  0  0  0  0999 V2000
   18.5287   -3.9900  -10.7153 N   0  0  0  0  0  0  0  0  0  0  0  0
   19.0686   -2.9671  -10.7227 C   0  0  0  0  0  0  0  0  0  0  0  0
   19.7609   -1.6929  -10.7160 C   0  0  0  0  0  0  0  0  0  0  0  0
   19.1138   -0.5847  -10.1636 C   0  0  0  0  0  0  0  0  0  0  0  0
   19.7564    0.6328  -10.1490 C   0  0  0  0  0  0  0  0  0  0  0  0
   19.1305    1.7009   -9.6156 F   0  0  0  0  0  0  0  0  0  0  0  0
   21.0218    0.7474  -10.6748 C   0  0  0  0  0  0  0  0  0  0  0  0
   21.6910   -0.3352  -11.2307 C   0  0  0  0  0  0  0  0  0  0  0  0
   22.9642   -0.2053  -11.7562 O   0  0  0  0  0  0  0  0  0  0  0  0
   24.0274   -0.1346  -10.8344 C   0  0  0  0  0  0  0  0  0  0  0  0
   23.8376   -0.3995   -9.5328 N   0  0  0  0  0  0  0  0  0  0  0  0
   24.8353   -0.3369   -8.6458 C   0  0  0  0  0  0  0  0  0  0  0  0
   26.1260    0.0042   -9.0105 C   0  0  0  0  0  0  0  0  0  0  0  0
   27.2103    0.0715   -8.0424 C   0  0  0  0  0  0  0  0  0  0  0  0
   27.0559   -0.2355   -6.8536 O   0  0  0  0  0  0  0  0  0  0  0  0
   28.4561    0.4958   -8.4771 O   0  0  0  0  0  0  0  0  0  0  0  0
   26.3184    0.2749  -10.3424 C   0  0  0  0  0  0  0  0  0  0  0  0
   25.2912    0.2091  -11.2478 C   0  0  0  0  0  0  0  0  0  0  0  0
   25.5751    0.5901  -13.1066 Br  0  0  0  0  0  0  0  0  0  0  0  0
   21.0312   -1.5451  -11.2359 C   0  0  0  0  0  0  0  0  0  0  0  0
  1  2  3  0
  2  3  1  0
  3  4  2  0
  4  5  1  0
  5  6  1  0
  5  7  2  0
  7  8  1  0
  8  9  1  0
  9 10  1  0
 10 11  2  0
 11 12  1  0
 12 13  2  0
 13 14  1  0
 14 15  2  0
 14 16  1  0
 13 17  1  0
 17 18  2  0
 18 19  1  0
  8 20  2  0
 20  3  1  0
 18 10  1  0
M  END
$$$$
