_rank6
     RDKit          3D

 20 21  0  0  0  0  0  0  0  0999 V2000
   18.4625    1.9845   -8.8769 N   0  0  0  0  0  0  0  0  0  0  0  0
   19.1713    1.2223   -9.3813 C   0  0  0  0  0  0  0  0  0  0  0  0
   20.0640    0.2568   -9.9928 C   0  0  0  0  0  0  0  0  0  0  0  0
   19.6474   -1.0736  -10.0833 C   0  0  0  0  0  0  0  0  0  0  0  0
   20.4824   -2.0035  -10.6609 C   0  0  0  0  0  0  0  0  0  0  0  0
   20.0788   -3.2867  -10.7473 F   0  0  0  0  0  0  0  0  0  0  0  0
   21.7119   -1.6175  -11.1409 C   0  0  0  0  0  0  0  0  0  0  0  0
   22.1543   -0.3032  -11.0655 C   0  0  0  0  0  0  0  0  0  0  0  0
   23.3940    0.0710  -11.5527 O   0  0  0  0  0  0  0  0  0  0  0  0
   24.4693    0.0407  -10.6427 C   0  0  0  0  0  0  0  0  0  0  0  0
   24.2646   -0.1554   -9.3312 N   0  0  0  0  0  0  0  0  0  0  0  0
   25.2734   -0.1868   -8.4552 C   0  0  0  0  0  0  0  0  0  0  0  0
   26.5916   -0.0196   -8.8422 C   0  0  0  0  0  0  0  0  0  0  0  0
   27.6880   -0.0542   -7.8860 C   0  0  0  0  0  0  0  0  0  0  0  0
   27.5201   -0.3555   -6.6975 O   0  0  0  0  0  0  0  0  0  0  0  0
   28.9614    0.2629   -8.3321 O   0  0  0  0  0  0  0  0  0  0  0  0
   26.7992    0.1810  -10.1842 C   0  0  0  0  0  0  0  0  0  0  0  0
   25.7604    0.2122  -11.0782 C   0  0  0  0  0  0  0  0  0  0  0  0
   26.0657    0.4935  -12.9513 Br  0  0  0  0  0  0  0  0  0  0  0  0
   21.3043    0.6125  -10.4841 C   0  0  0  0  0  0  0  0  0  0  0  0
  1  2  3  0
  2  3  1  0
  3  4  2  0
  4  5  1  0
  5  6  1  0
  5  7  2  0
  7  8  1  0
  8  9  1  0
  9 10  1  0
 10 11  2  0
 11 12  1  0
 12 13  2  0
 13 14  1  0
 14 15  2  0
 14 16  1  0
 13 17  1  0
 17 18  2  0
 18 19  1  0
  8 20  2  0
 20  3  1  0
 18 10  1  0
M  END
$$$$
