_rank4
     RDKit          3D

 20 21  0  0  0  0  0  0  0  0999 V2000
   18.3698    1.9599   -9.1261 N   0  0  0  0  0  0  0  0  0  0  0  0
   19.0920    1.1943   -9.6058 C   0  0  0  0  0  0  0  0  0  0  0  0
   19.9862    0.2171  -10.1961 C   0  0  0  0  0  0  0  0  0  0  0  0
   19.5671   -1.1137  -10.2676 C   0  0  0  0  0  0  0  0  0  0  0  0
   20.4034   -2.0547  -10.8250 C   0  0  0  0  0  0  0  0  0  0  0  0
   19.9973   -3.3381  -10.8931 F   0  0  0  0  0  0  0  0  0  0  0  0
   21.6366   -1.6792  -11.3037 C   0  0  0  0  0  0  0  0  0  0  0  0
   22.0816   -0.3648  -11.2470 C   0  0  0  0  0  0  0  0  0  0  0  0
   23.3251   -0.0013  -11.7326 O   0  0  0  0  0  0  0  0  0  0  0  0
   24.3857    0.0254  -10.8055 C   0  0  0  0  0  0  0  0  0  0  0  0
   24.1681   -0.1621   -9.4949 N   0  0  0  0  0  0  0  0  0  0  0  0
   25.1630   -0.1398   -8.6028 C   0  0  0  0  0  0  0  0  0  0  0  0
   26.4792    0.0775   -8.9712 C   0  0  0  0  0  0  0  0  0  0  0  0
   27.5604    0.1012   -7.9976 C   0  0  0  0  0  0  0  0  0  0  0  0
   28.7181    0.4152   -8.3020 O   0  0  0  0  0  0  0  0  0  0  0  0
   27.2731   -0.2417   -6.6858 O   0  0  0  0  0  0  0  0  0  0  0  0
   26.7000    0.2690  -10.3125 C   0  0  0  0  0  0  0  0  0  0  0  0
   25.6755    0.2451  -11.2230 C   0  0  0  0  0  0  0  0  0  0  0  0
   25.9992    0.5144  -13.0948 Br  0  0  0  0  0  0  0  0  0  0  0  0
   21.2302    0.5621  -10.6856 C   0  0  0  0  0  0  0  0  0  0  0  0
  1  2  3  0
  2  3  1  0
  3  4  2  0
  4  5  1  0
  5  6  1  0
  5  7  2  0
  7  8  1  0
  8  9  1  0
  9 10  1  0
 10 11  2  0
 11 12  1  0
 12 13  2  0
 13 14  1  0
 14 15  2  0
 14 16  1  0
 13 17  1  0
 17 18  2  0
 18 19  1  0
  8 20  2  0
 20  3  1  0
 18 10  1  0
M  END
$$$$
