_rank5
     RDKit          3D

 20 21  0  0  0  0  0  0  0  0999 V2000
   18.4137    1.9331   -9.1223 N   0  0  0  0  0  0  0  0  0  0  0  0
   19.1136    1.1486   -9.6045 C   0  0  0  0  0  0  0  0  0  0  0  0
   19.9778    0.1479  -10.1999 C   0  0  0  0  0  0  0  0  0  0  0  0
   19.5175   -1.1687  -10.2809 C   0  0  0  0  0  0  0  0  0  0  0  0
   20.3251   -2.1316  -10.8432 C   0  0  0  0  0  0  0  0  0  0  0  0
   19.8793   -3.4013  -10.9204 F   0  0  0  0  0  0  0  0  0  0  0  0
   21.5702   -1.7917  -11.3175 C   0  0  0  0  0  0  0  0  0  0  0  0
   22.0559   -0.4922  -11.2514 C   0  0  0  0  0  0  0  0  0  0  0  0
   23.3110   -0.1645  -11.7327 O   0  0  0  0  0  0  0  0  0  0  0  0
   24.3558   -0.1008  -10.7897 C   0  0  0  0  0  0  0  0  0  0  0  0
   24.1267   -0.3055   -9.4836 N   0  0  0  0  0  0  0  0  0  0  0  0
   25.1066   -0.2486   -8.5765 C   0  0  0  0  0  0  0  0  0  0  0  0
   26.4182    0.0243   -8.9239 C   0  0  0  0  0  0  0  0  0  0  0  0
   27.4830    0.0856   -7.9340 C   0  0  0  0  0  0  0  0  0  0  0  0
   28.6743   -0.0640   -8.2337 O   0  0  0  0  0  0  0  0  0  0  0  0
   27.1404    0.3203   -6.6117 O   0  0  0  0  0  0  0  0  0  0  0  0
   26.6507    0.2335  -10.2605 C   0  0  0  0  0  0  0  0  0  0  0  0
   25.6416    0.1739  -11.1865 C   0  0  0  0  0  0  0  0  0  0  0  0
   25.9817    0.4684  -13.0515 Br  0  0  0  0  0  0  0  0  0  0  0  0
   21.2328    0.4571  -10.6852 C   0  0  0  0  0  0  0  0  0  0  0  0
  1  2  3  0
  2  3  1  0
  3  4  2  0
  4  5  1  0
  5  6  1  0
  5  7  2  0
  7  8  1  0
  8  9  1  0
  9 10  1  0
 10 11  2  0
 11 12  1  0
 12 13  2  0
 13 14  1  0
 14 15  2  0
 14 16  1  0
 13 17  1  0
 17 18  2  0
 18 19  1  0
  8 20  2  0
 20  3  1  0
 18 10  1  0
M  END
$$$$
