_rank8
     RDKit          3D

 20 21  0  0  0  0  0  0  0  0999 V2000
   18.5464   -3.5259  -10.5930 N   0  0  0  0  0  0  0  0  0  0  0  0
   19.2392   -2.6003  -10.6245 C   0  0  0  0  0  0  0  0  0  0  0  0
   20.0902   -1.4265  -10.6562 C   0  0  0  0  0  0  0  0  0  0  0  0
   19.5676   -0.2109  -10.2077 C   0  0  0  0  0  0  0  0  0  0  0  0
   20.3616    0.9136  -10.2308 C   0  0  0  0  0  0  0  0  0  0  0  0
   19.8557    2.0855   -9.7976 F   0  0  0  0  0  0  0  0  0  0  0  0
   21.6543    0.8316  -10.6923 C   0  0  0  0  0  0  0  0  0  0  0  0
   22.2024   -0.3617  -11.1447 C   0  0  0  0  0  0  0  0  0  0  0  0
   23.5048   -0.4295  -11.6064 O   0  0  0  0  0  0  0  0  0  0  0  0
   24.5262   -0.2233  -10.6580 C   0  0  0  0  0  0  0  0  0  0  0  0
   24.2635   -0.2249   -9.3423 N   0  0  0  0  0  0  0  0  0  0  0  0
   25.2207   -0.0308   -8.4300 C   0  0  0  0  0  0  0  0  0  0  0  0
   26.5419    0.1840   -8.7816 C   0  0  0  0  0  0  0  0  0  0  0  0
   27.5820    0.3950   -7.7861 C   0  0  0  0  0  0  0  0  0  0  0  0
   27.4063    0.1557   -6.5847 O   0  0  0  0  0  0  0  0  0  0  0  0
   28.8092    0.8814   -8.2085 O   0  0  0  0  0  0  0  0  0  0  0  0
   26.8088    0.1852  -10.1282 C   0  0  0  0  0  0  0  0  0  0  0  0
   25.8229   -0.0144  -11.0594 C   0  0  0  0  0  0  0  0  0  0  0  0
   26.2109   -0.0099  -12.9383 Br  0  0  0  0  0  0  0  0  0  0  0  0
   21.3918   -1.4758  -11.1136 C   0  0  0  0  0  0  0  0  0  0  0  0
  1  2  3  0
  2  3  1  0
  3  4  2  0
  4  5  1  0
  5  6  1  0
  5  7  2  0
  7  8  1  0
  8  9  1  0
  9 10  1  0
 10 11  2  0
 11 12  1  0
 12 13  2  0
 13 14  1  0
 14 15  2  0
 14 16  1  0
 13 17  1  0
 17 18  2  0
 18 19  1  0
  8 20  2  0
 20  3  1  0
 18 10  1  0
M  END
$$$$
