_rank14
     RDKit          3D

 20 21  0  0  0  0  0  0  0  0999 V2000
   18.5670   -3.6051  -10.2780 N   0  0  0  0  0  0  0  0  0  0  0  0
   19.2896   -2.7158  -10.4359 C   0  0  0  0  0  0  0  0  0  0  0  0
   20.1807   -1.5870  -10.6219 C   0  0  0  0  0  0  0  0  0  0  0  0
   19.7006   -0.3048  -10.3441 C   0  0  0  0  0  0  0  0  0  0  0  0
   20.5331    0.7783  -10.5152 C   0  0  0  0  0  0  0  0  0  0  0  0
   20.0682    2.0147  -10.2467 F   0  0  0  0  0  0  0  0  0  0  0  0
   21.8222    0.5903  -10.9554 C   0  0  0  0  0  0  0  0  0  0  0  0
   22.3286   -0.6713  -11.2399 C   0  0  0  0  0  0  0  0  0  0  0  0
   23.6278   -0.8456  -11.6822 O   0  0  0  0  0  0  0  0  0  0  0  0
   24.6541   -0.6116  -10.7456 C   0  0  0  0  0  0  0  0  0  0  0  0
   24.7318   -1.3194   -9.6084 N   0  0  0  0  0  0  0  0  0  0  0  0
   25.6988   -1.1098   -8.7099 C   0  0  0  0  0  0  0  0  0  0  0  0
   26.6805   -0.1517   -8.8930 C   0  0  0  0  0  0  0  0  0  0  0  0
   27.7321    0.0743   -7.9130 C   0  0  0  0  0  0  0  0  0  0  0  0
   27.6822   -0.3949   -6.7689 O   0  0  0  0  0  0  0  0  0  0  0  0
   28.8238    0.8435   -8.2837 O   0  0  0  0  0  0  0  0  0  0  0  0
   26.5994    0.5715  -10.0570 C   0  0  0  0  0  0  0  0  0  0  0  0
   25.6053    0.3521  -10.9750 C   0  0  0  0  0  0  0  0  0  0  0  0
   25.5046    1.3707  -12.5977 Br  0  0  0  0  0  0  0  0  0  0  0  0
   21.4799   -1.7425  -11.0624 C   0  0  0  0  0  0  0  0  0  0  0  0
  1  2  3  0
  2  3  1  0
  3  4  2  0
  4  5  1  0
  5  6  1  0
  5  7  2  0
  7  8  1  0
  8  9  1  0
  9 10  1  0
 10 11  2  0
 11 12  1  0
 12 13  2  0
 13 14  1  0
 14 15  2  0
 14 16  1  0
 13 17  1  0
 17 18  2  0
 18 19  1  0
  8 20  2  0
 20  3  1  0
 18 10  1  0
M  END
$$$$
