_rank1
     RDKit          3D

 20 21  0  0  0  0  0  0  0  0999 V2000
   18.4642    2.0853   -8.8469 N   0  0  0  0  0  0  0  0  0  0  0  0
   19.1245    1.2867   -9.3607 C   0  0  0  0  0  0  0  0  0  0  0  0
   19.9379    0.2686   -9.9970 C   0  0  0  0  0  0  0  0  0  0  0  0
   19.4244   -1.0264  -10.1027 C   0  0  0  0  0  0  0  0  0  0  0  0
   20.1832   -2.0053  -10.7038 C   0  0  0  0  0  0  0  0  0  0  0  0
   19.6861   -3.2541  -10.8049 F   0  0  0  0  0  0  0  0  0  0  0  0
   21.4325   -1.7024  -11.1921 C   0  0  0  0  0  0  0  0  0  0  0  0
   21.9705   -0.4251  -11.1021 C   0  0  0  0  0  0  0  0  0  0  0  0
   23.2290   -0.1345  -11.5979 O   0  0  0  0  0  0  0  0  0  0  0  0
   24.2804   -0.0693  -10.6623 C   0  0  0  0  0  0  0  0  0  0  0  0
   24.0473   -0.1823   -9.3458 N   0  0  0  0  0  0  0  0  0  0  0  0
   25.0333   -0.1226   -8.4455 C   0  0  0  0  0  0  0  0  0  0  0  0
   26.3557    0.0591   -8.8110 C   0  0  0  0  0  0  0  0  0  0  0  0
   27.4271    0.1236   -7.8286 C   0  0  0  0  0  0  0  0  0  0  0  0
   27.2482   -0.1519   -6.6354 O   0  0  0  0  0  0  0  0  0  0  0  0
   28.6888    0.5084   -8.2541 O   0  0  0  0  0  0  0  0  0  0  0  0
   26.5923    0.1745  -10.1583 C   0  0  0  0  0  0  0  0  0  0  0  0
   25.5770    0.1125  -11.0772 C   0  0  0  0  0  0  0  0  0  0  0  0
   25.9228    0.2754  -12.9572 Br  0  0  0  0  0  0  0  0  0  0  0  0
   21.1956    0.5407  -10.4971 C   0  0  0  0  0  0  0  0  0  0  0  0
  1  2  3  0
  2  3  1  0
  3  4  2  0
  4  5  1  0
  5  6  1  0
  5  7  2  0
  7  8  1  0
  8  9  1  0
  9 10  1  0
 10 11  2  0
 11 12  1  0
 12 13  2  0
 13 14  1  0
 14 15  2  0
 14 16  1  0
 13 17  1  0
 17 18  2  0
 18 19  1  0
  8 20  2  0
 20  3  1  0
 18 10  1  0
M  END
$$$$
