_rank7
     RDKit          3D

 20 21  0  0  0  0  0  0  0  0999 V2000
   18.3267    2.0428   -9.2679 N   0  0  0  0  0  0  0  0  0  0  0  0
   19.0633    1.2531   -9.6822 C   0  0  0  0  0  0  0  0  0  0  0  0
   19.9707    0.2565  -10.2174 C   0  0  0  0  0  0  0  0  0  0  0  0
   19.5455   -1.0732  -10.2708 C   0  0  0  0  0  0  0  0  0  0  0  0
   20.3942   -2.0324  -10.7759 C   0  0  0  0  0  0  0  0  0  0  0  0
   19.9822   -3.3148  -10.8267 F   0  0  0  0  0  0  0  0  0  0  0  0
   21.6456   -1.6760  -11.2209 C   0  0  0  0  0  0  0  0  0  0  0  0
   22.0971   -0.3632  -11.1810 C   0  0  0  0  0  0  0  0  0  0  0  0
   23.3588   -0.0189  -11.6322 O   0  0  0  0  0  0  0  0  0  0  0  0
   24.4029   -0.0549  -10.6868 C   0  0  0  0  0  0  0  0  0  0  0  0
   24.1485   -0.0404   -9.3695 N   0  0  0  0  0  0  0  0  0  0  0  0
   25.1272   -0.0741   -8.4601 C   0  0  0  0  0  0  0  0  0  0  0  0
   26.4635   -0.1259   -8.8164 C   0  0  0  0  0  0  0  0  0  0  0  0
   27.5270   -0.1624   -7.8239 C   0  0  0  0  0  0  0  0  0  0  0  0
   28.7112   -0.3513   -8.1296 O   0  0  0  0  0  0  0  0  0  0  0  0
   27.1915    0.0219   -6.4917 O   0  0  0  0  0  0  0  0  0  0  0  0
   26.7219   -0.1406  -10.1645 C   0  0  0  0  0  0  0  0  0  0  0  0
   25.7139   -0.1059  -11.0928 C   0  0  0  0  0  0  0  0  0  0  0  0
   26.0902   -0.1271  -12.9740 Br  0  0  0  0  0  0  0  0  0  0  0  0
   21.2330    0.5821  -10.6720 C   0  0  0  0  0  0  0  0  0  0  0  0
  1  2  3  0
  2  3  1  0
  3  4  2  0
  4  5  1  0
  5  6  1  0
  5  7  2  0
  7  8  1  0
  8  9  1  0
  9 10  1  0
 10 11  2  0
 11 12  1  0
 12 13  2  0
 13 14  1  0
 14 15  2  0
 14 16  1  0
 13 17  1  0
 17 18  2  0
 18 19  1  0
  8 20  2  0
 20  3  1  0
 18 10  1  0
M  END
$$$$
