_rank10
     RDKit          3D

 20 21  0  0  0  0  0  0  0  0999 V2000
   18.5965   -3.4592   -9.6390 N   0  0  0  0  0  0  0  0  0  0  0  0
   19.1778   -2.4993   -9.9190 C   0  0  0  0  0  0  0  0  0  0  0  0
   19.8899   -1.2903  -10.2856 C   0  0  0  0  0  0  0  0  0  0  0  0
   19.2301   -0.0647  -10.1656 C   0  0  0  0  0  0  0  0  0  0  0  0
   19.8912    1.0930  -10.5093 C   0  0  0  0  0  0  0  0  0  0  0  0
   19.2530    2.2746  -10.3928 F   0  0  0  0  0  0  0  0  0  0  0  0
   21.1872    1.0339  -10.9649 C   0  0  0  0  0  0  0  0  0  0  0  0
   21.8698   -0.1686  -11.0952 C   0  0  0  0  0  0  0  0  0  0  0  0
   23.1739   -0.2132  -11.5551 O   0  0  0  0  0  0  0  0  0  0  0  0
   24.1923   -0.1263  -10.5854 C   0  0  0  0  0  0  0  0  0  0  0  0
   23.9056   -0.1237   -9.2746 N   0  0  0  0  0  0  0  0  0  0  0  0
   24.8598   -0.0418   -8.3424 C   0  0  0  0  0  0  0  0  0  0  0  0
   26.2024    0.0454   -8.6669 C   0  0  0  0  0  0  0  0  0  0  0  0
   27.2390    0.1344   -7.6497 C   0  0  0  0  0  0  0  0  0  0  0  0
   26.9955    0.0027   -6.4435 O   0  0  0  0  0  0  0  0  0  0  0  0
   28.5420    0.3754   -8.0563 O   0  0  0  0  0  0  0  0  0  0  0  0
   26.4938    0.0426  -10.0084 C   0  0  0  0  0  0  0  0  0  0  0  0
   25.5109   -0.0416  -10.9602 C   0  0  0  0  0  0  0  0  0  0  0  0
   25.9333   -0.0444  -12.8316 Br  0  0  0  0  0  0  0  0  0  0  0  0
   21.1911   -1.3162  -10.7462 C   0  0  0  0  0  0  0  0  0  0  0  0
  1  2  3  0
  2  3  1  0
  3  4  2  0
  4  5  1  0
  5  6  1  0
  5  7  2  0
  7  8  1  0
  8  9  1  0
  9 10  1  0
 10 11  2  0
 11 12  1  0
 12 13  2  0
 13 14  1  0
 14 15  2  0
 14 16  1  0
 13 17  1  0
 17 18  2  0
 18 19  1  0
  8 20  2  0
 20  3  1  0
 18 10  1  0
M  END
$$$$
