_rank18
     RDKit          3D

 20 21  0  0  0  0  0  0  0  0999 V2000
   27.8003   -1.8874  -13.2304 C   0  0  0  0  0  0  0  0  0  0  0  0
   27.7043   -0.6481  -12.3726 C   0  0  0  0  0  0  0  0  0  0  0  0
   26.6157   -0.5892  -11.5476 O   0  0  0  0  0  0  0  0  0  0  0  0
   26.7048    0.2625  -10.4688 C   0  0  2  0  0  0  0  0  0  0  0  0
   27.7141   -0.2123   -9.4484 C   0  0  0  0  0  0  0  0  0  0  0  0
   27.3523    0.9782   -8.1575 S   0  0  2  0  0  6  0  0  0  0  0  0
   28.0279    2.2929   -8.4590 O   0  0  0  0  0  0  0  0  0  0  0  0
   27.7116    0.4355   -6.8144 O   0  0  0  0  0  0  0  0  0  0  0  0
   25.6053    1.0312   -8.4204 C   0  0  0  0  0  0  0  0  0  0  0  0
   25.3935    0.4382   -9.7984 C   0  0  2  0  0  0  0  0  0  0  0  0
   24.5764   -0.6823   -9.7225 O   0  0  0  0  0  0  0  0  0  0  0  0
   23.3450   -0.7449  -10.3582 C   0  0  0  0  0  0  0  0  0  0  0  0
   23.2645   -0.4942  -11.7340 C   0  0  0  0  0  0  0  0  0  0  0  0
   22.0868   -0.5342  -12.4322 C   0  0  0  0  0  0  0  0  0  0  0  0
   21.9959   -0.2937  -13.7667 F   0  0  0  0  0  0  0  0  0  0  0  0
   20.9291   -0.8405  -11.7473 C   0  0  0  0  0  0  0  0  0  0  0  0
   20.9330   -1.1020  -10.3958 C   0  0  0  0  0  0  0  0  0  0  0  0
   19.7575   -1.4374   -9.7013 C   0  0  0  0  0  0  0  0  0  0  0  0
   18.7396   -1.7295   -9.1129 N   0  0  0  0  0  0  0  0  0  0  0  0
   22.1595   -1.0453   -9.7226 C   0  0  0  0  0  0  0  0  0  0  0  0
  1  2  1  6
  2  3  1  1
  4  3  1  6
  5  4  1  6
  6  5  1  6
  6  7  2  0
  6  8  2  0
  6  9  1  0
  9 10  1  1
 10 11  1  1
 11 12  1  0
 12 13  2  0
 13 14  1  0
 14 15  1  0
 14 16  2  0
 16 17  1  0
 17 18  1  0
 18 19  3  0
 17 20  2  0
 10  4  1  0
 20 12  1  0
M  END
$$$$
