_rank6
     RDKit          3D

 20 21  0  0  0  0  0  0  0  0999 V2000
   26.7023   -0.1782   -8.7419 C   0  0  0  0  0  0  0  0  0  0  0  0
   26.9500   -1.5309   -9.3662 C   0  0  0  0  0  0  0  0  0  0  0  0
   26.3282   -1.7460  -10.5647 O   0  0  0  0  0  0  0  0  0  0  0  0
   26.3389   -0.7007  -11.4615 C   0  0  2  0  0  0  0  0  0  0  0  0
   27.3950    0.3278  -11.1268 C   0  0  0  0  0  0  0  0  0  0  0  0
   26.9250    1.5763  -12.3246 S   0  0  2  0  0  6  0  0  0  0  0  0
   27.4671    1.2199  -13.6866 O   0  0  0  0  0  0  0  0  0  0  0  0
   27.3426    2.9356  -11.8713 O   0  0  0  0  0  0  0  0  0  0  0  0
   25.1799    1.3270  -12.1967 C   0  0  0  0  0  0  0  0  0  0  0  0
   25.0201   -0.0259  -11.5338 C   0  0  2  0  0  0  0  0  0  0  0  0
   24.3171    0.0991  -10.3425 O   0  0  0  0  0  0  0  0  0  0  0  0
   22.9456   -0.0956  -10.2685 C   0  0  0  0  0  0  0  0  0  0  0  0
   22.0876    1.0107  -10.3138 C   0  0  0  0  0  0  0  0  0  0  0  0
   20.7241    0.9010  -10.2440 C   0  0  0  0  0  0  0  0  0  0  0  0
   19.8814    1.9663  -10.2877 F   0  0  0  0  0  0  0  0  0  0  0  0
   20.1732   -0.3584  -10.1287 C   0  0  0  0  0  0  0  0  0  0  0  0
   20.9544   -1.4909  -10.0820 C   0  0  0  0  0  0  0  0  0  0  0  0
   20.3931   -2.7765   -9.9882 C   0  0  0  0  0  0  0  0  0  0  0  0
   19.9006   -3.8799   -9.9015 N   0  0  0  0  0  0  0  0  0  0  0  0
   22.3436   -1.3299  -10.1522 C   0  0  0  0  0  0  0  0  0  0  0  0
  1  2  1  6
  2  3  1  1
  4  3  1  1
  5  4  1  6
  6  5  1  1
  6  7  2  0
  6  8  2  0
  6  9  1  0
  9 10  1  1
 10 11  1  1
 11 12  1  0
 12 13  2  0
 13 14  1  0
 14 15  1  0
 14 16  2  0
 16 17  1  0
 17 18  1  0
 18 19  3  0
 17 20  2  0
 10  4  1  0
 20 12  1  0
M  END
$$$$
