_rank17
     RDKit          3D

 20 21  0  0  0  0  0  0  0  0999 V2000
   27.3729    1.1970  -13.1184 C   0  0  0  0  0  0  0  0  0  0  0  0
   26.2186    1.4296  -12.1726 C   0  0  0  0  0  0  0  0  0  0  0  0
   26.5600    1.9039  -10.9366 O   0  0  0  0  0  0  0  0  0  0  0  0
   26.6718    0.9727   -9.9279 C   0  0  2  0  0  0  0  0  0  0  0  0
   27.7370   -0.0596  -10.2195 C   0  0  0  0  0  0  0  0  0  0  0  0
   27.3982   -1.1697   -8.8530 S   0  0  2  0  0  6  0  0  0  0  0  0
   28.0234   -0.6404   -7.5862 O   0  0  0  0  0  0  0  0  0  0  0  0
   27.8300   -2.5615   -9.1756 O   0  0  0  0  0  0  0  0  0  0  0  0
   25.6407   -0.9840   -8.8773 C   0  0  0  0  0  0  0  0  0  0  0  0
   25.3862    0.2762   -9.6789 C   0  0  2  0  0  0  0  0  0  0  0  0
   24.6047   -0.0076  -10.7913 O   0  0  0  0  0  0  0  0  0  0  0  0
   23.3167   -0.5111  -10.6821 C   0  0  0  0  0  0  0  0  0  0  0  0
   22.8011   -0.8206   -9.4169 C   0  0  0  0  0  0  0  0  0  0  0  0
   21.5413   -1.3231   -9.2269 C   0  0  0  0  0  0  0  0  0  0  0  0
   21.0297   -1.6264   -8.0050 F   0  0  0  0  0  0  0  0  0  0  0  0
   20.7439   -1.5283  -10.3338 C   0  0  0  0  0  0  0  0  0  0  0  0
   21.1825   -1.2434  -11.6072 C   0  0  0  0  0  0  0  0  0  0  0  0
   20.3624   -1.4299  -12.7338 C   0  0  0  0  0  0  0  0  0  0  0  0
   19.6652   -1.5911  -13.7113 N   0  0  0  0  0  0  0  0  0  0  0  0
   22.4791   -0.7355  -11.7535 C   0  0  0  0  0  0  0  0  0  0  0  0
  1  2  1  6
  2  3  1  1
  4  3  1  6
  5  4  1  6
  6  5  1  6
  6  7  2  0
  6  8  2  0
  6  9  1  0
  9 10  1  1
 10 11  1  6
 11 12  1  0
 12 13  2  0
 13 14  1  0
 14 15  1  0
 14 16  2  0
 16 17  1  0
 17 18  1  0
 18 19  3  0
 17 20  2  0
 10  4  1  0
 20 12  1  0
M  END
$$$$
