_rank16
     RDKit          3D

 20 21  0  0  0  0  0  0  0  0999 V2000
   25.4939   -2.3749  -12.0454 C   0  0  0  0  0  0  0  0  0  0  0  0
   26.9118   -1.9815  -12.3982 C   0  0  0  0  0  0  0  0  0  0  0  0
   27.1781   -0.5626  -11.9453 C   0  0  2  0  0  0  0  0  0  0  0  0
   28.5491   -0.3141  -12.1657 O   0  0  0  0  0  0  0  0  0  0  0  0
   26.9301   -0.3737  -10.5074 C   0  0  0  0  0  0  0  0  0  0  0  0
   27.9585   -0.4742   -9.5880 C   0  0  0  0  0  0  0  0  0  0  0  0
   27.7328   -0.2976   -8.2314 C   0  0  0  0  0  0  0  0  0  0  0  0
   26.4426   -0.0151   -7.8091 C   0  0  0  0  0  0  0  0  0  0  0  0
   25.3928    0.0930   -8.6920 C   0  0  0  0  0  0  0  0  0  0  0  0
   25.6677   -0.0919  -10.0396 C   0  0  0  0  0  0  0  0  0  0  0  0
   24.6496    0.0024  -11.0022 O   0  0  0  0  0  0  0  0  0  0  0  0
   23.3470   -0.1418  -10.5946 C   0  0  0  0  0  0  0  0  0  0  0  0
   22.3129   -0.0348  -11.5160 C   0  0  0  0  0  0  0  0  0  0  0  0
   20.9866   -0.1715  -11.1580 C   0  0  0  0  0  0  0  0  0  0  0  0
   20.0195   -0.0569  -12.1015 F   0  0  0  0  0  0  0  0  0  0  0  0
   20.7205   -0.4223   -9.8304 C   0  0  0  0  0  0  0  0  0  0  0  0
   21.7329   -0.5324   -8.8980 C   0  0  0  0  0  0  0  0  0  0  0  0
   21.3528   -0.7976   -7.5251 C   0  0  0  0  0  0  0  0  0  0  0  0
   21.0593   -1.0203   -6.4289 N   0  0  0  0  0  0  0  0  0  0  0  0
   23.0638   -0.3934   -9.2681 C   0  0  0  0  0  0  0  0  0  0  0  0
  2  1  1  6
  2  3  1  0
  3  4  1  1
  3  5  1  0
  5  6  2  0
  6  7  1  0
  7  8  2  0
  8  9  1  0
  9 10  2  0
 10 11  1  0
 11 12  1  0
 12 13  2  0
 13 14  1  0
 14 15  1  0
 14 16  2  0
 16 17  1  0
 17 18  1  0
 18 19  3  0
 17 20  2  0
 10  5  1  0
 20 12  1  0
M  END
$$$$
