_rank10
     RDKit          3D

 20 21  0  0  0  0  0  0  0  0999 V2000
   27.4644   -2.5165   -8.4574 C   0  0  0  0  0  0  0  0  0  0  0  0
   26.2888   -2.7379   -9.3839 C   0  0  0  0  0  0  0  0  0  0  0  0
   26.3436   -1.7487  -10.5275 C   0  0  2  0  0  0  0  0  0  0  0  0
   27.6122   -1.8887  -11.1282 O   0  0  0  0  0  0  0  0  0  0  0  0
   26.2322   -0.3539  -10.0724 C   0  0  0  0  0  0  0  0  0  0  0  0
   27.0855    0.1509   -9.1079 C   0  0  0  0  0  0  0  0  0  0  0  0
   26.9868    1.4641   -8.6739 C   0  0  0  0  0  0  0  0  0  0  0  0
   26.0059    2.2705   -9.2309 C   0  0  0  0  0  0  0  0  0  0  0  0
   25.1380    1.8060  -10.1923 C   0  0  0  0  0  0  0  0  0  0  0  0
   25.2756    0.4850  -10.5947 C   0  0  0  0  0  0  0  0  0  0  0  0
   24.4279   -0.0627  -11.5712 O   0  0  0  0  0  0  0  0  0  0  0  0
   23.1791   -0.4872  -11.1913 C   0  0  0  0  0  0  0  0  0  0  0  0
   22.7579   -1.7749  -11.4985 C   0  0  0  0  0  0  0  0  0  0  0  0
   21.5126   -2.2507  -11.1397 C   0  0  0  0  0  0  0  0  0  0  0  0
   21.1561   -3.5173  -11.4668 F   0  0  0  0  0  0  0  0  0  0  0  0
   20.6877   -1.3872  -10.4538 C   0  0  0  0  0  0  0  0  0  0  0  0
   21.0862   -0.1035  -10.1383 C   0  0  0  0  0  0  0  0  0  0  0  0
   20.1477    0.7301   -9.4144 C   0  0  0  0  0  0  0  0  0  0  0  0
   19.3888    1.3936   -8.8477 N   0  0  0  0  0  0  0  0  0  0  0  0
   22.3409    0.3657  -10.5037 C   0  0  0  0  0  0  0  0  0  0  0  0
  2  1  1  6
  2  3  1  0
  3  4  1  1
  3  5  1  0
  5  6  2  0
  6  7  1  0
  7  8  2  0
  8  9  1  0
  9 10  2  0
 10 11  1  0
 11 12  1  0
 12 13  2  0
 13 14  1  0
 14 15  1  0
 14 16  2  0
 16 17  1  0
 17 18  1  0
 18 19  3  0
 17 20  2  0
 10  5  1  0
 20 12  1  0
M  END
$$$$
