_rank7
     RDKit          3D

 20 21  0  0  0  0  0  0  0  0999 V2000
   25.4568    1.4822  -13.0616 C   0  0  0  0  0  0  0  0  0  0  0  0
   26.8562    1.4648  -12.4863 C   0  0  0  0  0  0  0  0  0  0  0  0
   27.1809    0.0804  -11.9693 C   0  0  2  0  0  0  0  0  0  0  0  0
   26.3326   -0.8188  -12.6488 O   0  0  0  0  0  0  0  0  0  0  0  0
   26.9021   -0.0645  -10.5318 C   0  0  0  0  0  0  0  0  0  0  0  0
   27.8819    0.1839   -9.5877 C   0  0  0  0  0  0  0  0  0  0  0  0
   27.6269    0.0495   -8.2314 C   0  0  0  0  0  0  0  0  0  0  0  0
   26.3573   -0.3428   -7.8351 C   0  0  0  0  0  0  0  0  0  0  0  0
   25.3558   -0.5992   -8.7430 C   0  0  0  0  0  0  0  0  0  0  0  0
   25.6586   -0.4512  -10.0892 C   0  0  0  0  0  0  0  0  0  0  0  0
   24.6900   -0.6943  -11.0765 O   0  0  0  0  0  0  0  0  0  0  0  0
   23.3660   -0.5462  -10.7462 C   0  0  0  0  0  0  0  0  0  0  0  0
   22.8801    0.6954  -10.3564 C   0  0  0  0  0  0  0  0  0  0  0  0
   21.5580    0.8977  -10.0142 C   0  0  0  0  0  0  0  0  0  0  0  0
   21.1407    2.1327   -9.6412 F   0  0  0  0  0  0  0  0  0  0  0  0
   20.7228   -0.1955  -10.0743 C   0  0  0  0  0  0  0  0  0  0  0  0
   21.1848   -1.4384  -10.4591 C   0  0  0  0  0  0  0  0  0  0  0  0
   20.2293   -2.5274  -10.4913 C   0  0  0  0  0  0  0  0  0  0  0  0
   19.4558   -3.3866  -10.5184 N   0  0  0  0  0  0  0  0  0  0  0  0
   22.5165   -1.6317  -10.8013 C   0  0  0  0  0  0  0  0  0  0  0  0
  2  1  1  6
  2  3  1  0
  3  4  1  6
  3  5  1  0
  5  6  2  0
  6  7  1  0
  7  8  2  0
  8  9  1  0
  9 10  2  0
 10 11  1  0
 11 12  1  0
 12 13  2  0
 13 14  1  0
 14 15  1  0
 14 16  2  0
 16 17  1  0
 17 18  1  0
 18 19  3  0
 17 20  2  0
 10  5  1  0
 20 12  1  0
M  END
$$$$
