_rank14
     RDKit          3D

 20 21  0  0  0  0  0  0  0  0999 V2000
   24.9718   -0.7849  -14.1950 C   0  0  0  0  0  0  0  0  0  0  0  0
   24.1856   -1.6205  -13.2084 C   0  0  0  0  0  0  0  0  0  0  0  0
   22.7932   -1.0505  -13.0486 C   0  0  2  0  0  0  0  0  0  0  0  0
   22.9049    0.3479  -13.1964 O   0  0  0  0  0  0  0  0  0  0  0  0
   22.2315   -1.3006  -11.7119 C   0  0  0  0  0  0  0  0  0  0  0  0
   21.0372   -1.9810  -11.5571 C   0  0  0  0  0  0  0  0  0  0  0  0
   20.5014   -2.2205  -10.3009 C   0  0  0  0  0  0  0  0  0  0  0  0
   21.1929   -1.7601   -9.1906 C   0  0  0  0  0  0  0  0  0  0  0  0
   22.3835   -1.0796   -9.3026 C   0  0  0  0  0  0  0  0  0  0  0  0
   22.8800   -0.8639  -10.5804 C   0  0  0  0  0  0  0  0  0  0  0  0
   24.0892   -0.1773  -10.7771 O   0  0  0  0  0  0  0  0  0  0  0  0
   25.1713   -0.5219  -10.0063 C   0  0  0  0  0  0  0  0  0  0  0  0
   25.7003   -1.8042  -10.0820 C   0  0  0  0  0  0  0  0  0  0  0  0
   26.7870   -2.2013   -9.3287 C   0  0  0  0  0  0  0  0  0  0  0  0
   27.2601   -3.4667   -9.4446 F   0  0  0  0  0  0  0  0  0  0  0  0
   27.3379   -1.2634   -8.4841 C   0  0  0  0  0  0  0  0  0  0  0  0
   26.8280    0.0164   -8.3933 C   0  0  0  0  0  0  0  0  0  0  0  0
   27.4761    0.9319   -7.4759 C   0  0  0  0  0  0  0  0  0  0  0  0
   28.0008    1.6510   -6.7377 N   0  0  0  0  0  0  0  0  0  0  0  0
   25.7346    0.4061   -9.1552 C   0  0  0  0  0  0  0  0  0  0  0  0
  2  1  1  6
  2  3  1  0
  3  4  1  1
  3  5  1  0
  5  6  2  0
  6  7  1  0
  7  8  2  0
  8  9  1  0
  9 10  2  0
 10 11  1  0
 11 12  1  0
 12 13  2  0
 13 14  1  0
 14 15  1  0
 14 16  2  0
 16 17  1  0
 17 18  1  0
 18 19  3  0
 17 20  2  0
 10  5  1  0
 20 12  1  0
M  END
$$$$
