_rank9
     RDKit          3D

 20 21  0  0  0  0  0  0  0  0999 V2000
   27.9798    0.4353   -7.9225 C   0  0  0  0  0  0  0  0  0  0  0  0
   26.5048    0.0991   -7.8910 C   0  0  0  0  0  0  0  0  0  0  0  0
   26.1678   -0.8376   -9.0303 C   0  0  2  0  0  0  0  0  0  0  0  0
   27.0560   -1.9296   -8.9376 O   0  0  0  0  0  0  0  0  0  0  0  0
   26.3781   -0.2200  -10.3491 C   0  0  0  0  0  0  0  0  0  0  0  0
   27.3988    0.6904  -10.5547 C   0  0  0  0  0  0  0  0  0  0  0  0
   27.6034    1.2766  -11.7945 C   0  0  0  0  0  0  0  0  0  0  0  0
   26.7560    0.9292  -12.8357 C   0  0  0  0  0  0  0  0  0  0  0  0
   25.7293    0.0280  -12.6717 C   0  0  0  0  0  0  0  0  0  0  0  0
   25.5641   -0.5323  -11.4129 C   0  0  0  0  0  0  0  0  0  0  0  0
   24.5391   -1.4601  -11.1661 O   0  0  0  0  0  0  0  0  0  0  0  0
   23.3156   -0.9914  -10.7570 C   0  0  0  0  0  0  0  0  0  0  0  0
   23.0909    0.3759  -10.6587 C   0  0  0  0  0  0  0  0  0  0  0  0
   21.8794    0.8986  -10.2525 C   0  0  0  0  0  0  0  0  0  0  0  0
   21.7182    2.2427  -10.1754 F   0  0  0  0  0  0  0  0  0  0  0  0
   20.8835   -0.0005   -9.9425 C   0  0  0  0  0  0  0  0  0  0  0  0
   21.0854   -1.3633  -10.0333 C   0  0  0  0  0  0  0  0  0  0  0  0
   19.9766   -2.2291   -9.6858 C   0  0  0  0  0  0  0  0  0  0  0  0
   19.0946   -2.9284   -9.4204 N   0  0  0  0  0  0  0  0  0  0  0  0
   22.3076   -1.8792  -10.4429 C   0  0  0  0  0  0  0  0  0  0  0  0
  2  1  1  6
  2  3  1  0
  3  4  1  6
  3  5  1  0
  5  6  2  0
  6  7  1  0
  7  8  2  0
  8  9  1  0
  9 10  2  0
 10 11  1  0
 11 12  1  0
 12 13  2  0
 13 14  1  0
 14 15  1  0
 14 16  2  0
 16 17  1  0
 17 18  1  0
 18 19  3  0
 17 20  2  0
 10  5  1  0
 20 12  1  0
M  END
$$$$
