_rank8
     RDKit          3D

 20 21  0  0  0  0  0  0  0  0999 V2000
   26.7181    1.7888  -13.8886 C   0  0  0  0  0  0  0  0  0  0  0  0
   26.3756    1.5473  -12.4346 C   0  0  0  0  0  0  0  0  0  0  0  0
   27.1783    0.3789  -11.9058 C   0  0  2  0  0  0  0  0  0  0  0  0
   26.8525   -0.7361  -12.7061 O   0  0  0  0  0  0  0  0  0  0  0  0
   26.8259    0.0340  -10.5196 C   0  0  0  0  0  0  0  0  0  0  0  0
   27.8001   -0.0808   -9.5445 C   0  0  0  0  0  0  0  0  0  0  0  0
   27.4759   -0.4056   -8.2360 C   0  0  0  0  0  0  0  0  0  0  0  0
   26.1421   -0.6155   -7.9201 C   0  0  0  0  0  0  0  0  0  0  0  0
   25.1438   -0.5108   -8.8611 C   0  0  0  0  0  0  0  0  0  0  0  0
   25.5171   -0.1837  -10.1570 C   0  0  0  0  0  0  0  0  0  0  0  0
   24.5564   -0.0583  -11.1736 O   0  0  0  0  0  0  0  0  0  0  0  0
   23.2347   -0.2425  -10.8525 C   0  0  0  0  0  0  0  0  0  0  0  0
   22.4368    0.8489  -10.5333 C   0  0  0  0  0  0  0  0  0  0  0  0
   21.1026    0.7180  -10.2035 C   0  0  0  0  0  0  0  0  0  0  0  0
   20.3729    1.8200   -9.9007 F   0  0  0  0  0  0  0  0  0  0  0  0
   20.5815   -0.5567  -10.2022 C   0  0  0  0  0  0  0  0  0  0  0  0
   21.3566   -1.6553  -10.5163 C   0  0  0  0  0  0  0  0  0  0  0  0
   20.7178   -2.9556  -10.4875 C   0  0  0  0  0  0  0  0  0  0  0  0
   20.1976   -3.9884  -10.4737 N   0  0  0  0  0  0  0  0  0  0  0  0
   22.6976   -1.5132  -10.8468 C   0  0  0  0  0  0  0  0  0  0  0  0
  2  1  1  6
  2  3  1  0
  3  4  1  6
  3  5  1  0
  5  6  2  0
  6  7  1  0
  7  8  2  0
  8  9  1  0
  9 10  2  0
 10 11  1  0
 11 12  1  0
 12 13  2  0
 13 14  1  0
 14 15  1  0
 14 16  2  0
 16 17  1  0
 17 18  1  0
 18 19  3  0
 17 20  2  0
 10  5  1  0
 20 12  1  0
M  END
$$$$
