_rank20
     RDKit          3D

 20 21  0  0  0  0  0  0  0  0999 V2000
   25.2681    0.2271  -13.9685 C   0  0  0  0  0  0  0  0  0  0  0  0
   26.6621    0.8155  -13.9819 C   0  0  0  0  0  0  0  0  0  0  0  0
   27.0496    1.2480  -12.5848 C   0  0  2  0  0  0  0  0  0  0  0  0
   27.0177    0.0927  -11.7760 O   0  0  0  0  0  0  0  0  0  0  0  0
   26.0956    2.2072  -12.0064 C   0  0  0  0  0  0  0  0  0  0  0  0
   26.0430    3.5157  -12.4515 C   0  0  0  0  0  0  0  0  0  0  0  0
   25.1468    4.4256  -11.9114 C   0  0  0  0  0  0  0  0  0  0  0  0
   24.2951    3.9943  -10.9058 C   0  0  0  0  0  0  0  0  0  0  0  0
   24.3164    2.7013  -10.4357 C   0  0  0  0  0  0  0  0  0  0  0  0
   25.2304    1.8273  -11.0070 C   0  0  0  0  0  0  0  0  0  0  0  0
   25.3131    0.4916  -10.5813 O   0  0  0  0  0  0  0  0  0  0  0  0
   24.1743   -0.1212  -10.1211 C   0  0  0  0  0  0  0  0  0  0  0  0
   22.9508    0.1387  -10.7253 C   0  0  0  0  0  0  0  0  0  0  0  0
   21.7768   -0.4510  -10.3012 C   0  0  0  0  0  0  0  0  0  0  0  0
   20.6115   -0.1589  -10.9299 F   0  0  0  0  0  0  0  0  0  0  0  0
   21.8637   -1.3221   -9.2382 C   0  0  0  0  0  0  0  0  0  0  0  0
   23.0693   -1.5947   -8.6231 C   0  0  0  0  0  0  0  0  0  0  0  0
   23.0590   -2.5252   -7.5123 C   0  0  0  0  0  0  0  0  0  0  0  0
   23.0360   -3.2665   -6.6250 N   0  0  0  0  0  0  0  0  0  0  0  0
   24.2447   -0.9964   -9.0571 C   0  0  0  0  0  0  0  0  0  0  0  0
  2  1  1  6
  2  3  1  0
  3  4  1  1
  3  5  1  0
  5  6  2  0
  6  7  1  0
  7  8  2  0
  8  9  1  0
  9 10  2  0
 10 11  1  0
 11 12  1  0
 12 13  2  0
 13 14  1  0
 14 15  1  0
 14 16  2  0
 16 17  1  0
 17 18  1  0
 18 19  3  0
 17 20  2  0
 10  5  1  0
 20 12  1  0
M  END
$$$$
