_rank12
     RDKit          3D

 20 21  0  0  0  0  0  0  0  0999 V2000
   27.1214   -0.0548   -8.1384 C   0  0  0  0  0  0  0  0  0  0  0  0
   26.1002   -0.7297   -9.0280 C   0  0  0  0  0  0  0  0  0  0  0  0
   26.0773   -0.0581  -10.3836 C   0  0  2  0  0  0  0  0  0  0  0  0
   25.3445    1.1380  -10.2345 O   0  0  0  0  0  0  0  0  0  0  0  0
   25.3855   -0.8650  -11.4011 C   0  0  0  0  0  0  0  0  0  0  0  0
   26.0329   -1.2605  -12.5575 C   0  0  0  0  0  0  0  0  0  0  0  0
   25.3879   -2.0209  -13.5210 C   0  0  0  0  0  0  0  0  0  0  0  0
   24.0671   -2.3813  -13.3009 C   0  0  0  0  0  0  0  0  0  0  0  0
   23.3882   -2.0078  -12.1638 C   0  0  0  0  0  0  0  0  0  0  0  0
   24.0756   -1.2473  -11.2284 C   0  0  0  0  0  0  0  0  0  0  0  0
   23.4517   -0.8272  -10.0425 O   0  0  0  0  0  0  0  0  0  0  0  0
   22.0807   -0.7704  -10.0080 C   0  0  0  0  0  0  0  0  0  0  0  0
   21.3327   -1.9373  -10.1010 C   0  0  0  0  0  0  0  0  0  0  0  0
   19.9525   -1.9350  -10.0714 C   0  0  0  0  0  0  0  0  0  0  0  0
   19.2752   -3.1058  -10.1663 F   0  0  0  0  0  0  0  0  0  0  0  0
   19.3324   -0.7121   -9.9439 C   0  0  0  0  0  0  0  0  0  0  0  0
   20.0564    0.4598   -9.8499 C   0  0  0  0  0  0  0  0  0  0  0  0
   19.3137    1.6971   -9.7185 C   0  0  0  0  0  0  0  0  0  0  0  0
   18.7262    2.6890   -9.6269 N   0  0  0  0  0  0  0  0  0  0  0  0
   21.4445    0.4469   -9.8807 C   0  0  0  0  0  0  0  0  0  0  0  0
  2  1  1  6
  2  3  1  0
  3  4  1  1
  3  5  1  0
  5  6  2  0
  6  7  1  0
  7  8  2  0
  8  9  1  0
  9 10  2  0
 10 11  1  0
 11 12  1  0
 12 13  2  0
 13 14  1  0
 14 15  1  0
 14 16  2  0
 16 17  1  0
 17 18  1  0
 18 19  3  0
 17 20  2  0
 10  5  1  0
 20 12  1  0
M  END
$$$$
