_rank5
     RDKit          3D

 20 21  0  0  0  0  0  0  0  0999 V2000
   27.3987    1.3896   -8.5804 C   0  0  0  0  0  0  0  0  0  0  0  0
   27.4693   -0.1079   -8.3749 C   0  0  0  0  0  0  0  0  0  0  0  0
   26.2023   -0.7563   -8.8879 C   0  0  2  0  0  0  0  0  0  0  0  0
   26.2932   -2.1301   -8.5807 O   0  0  0  0  0  0  0  0  0  0  0  0
   26.0651   -0.6481  -10.3489 C   0  0  0  0  0  0  0  0  0  0  0  0
   27.0230   -1.1765  -11.1953 C   0  0  0  0  0  0  0  0  0  0  0  0
   26.9009   -1.0785  -12.5730 C   0  0  0  0  0  0  0  0  0  0  0  0
   25.7883   -0.4338  -13.0919 C   0  0  0  0  0  0  0  0  0  0  0  0
   24.8137    0.1049  -12.2838 C   0  0  0  0  0  0  0  0  0  0  0  0
   24.9797   -0.0180  -10.9115 C   0  0  0  0  0  0  0  0  0  0  0  0
   24.0284    0.5057  -10.0209 O   0  0  0  0  0  0  0  0  0  0  0  0
   22.7189    0.1180  -10.1583 C   0  0  0  0  0  0  0  0  0  0  0  0
   21.6950    0.9744   -9.7737 C   0  0  0  0  0  0  0  0  0  0  0  0
   20.3625    0.6331   -9.8910 C   0  0  0  0  0  0  0  0  0  0  0  0
   19.4059    1.5104   -9.4990 F   0  0  0  0  0  0  0  0  0  0  0  0
   20.0795   -0.6096  -10.4125 C   0  0  0  0  0  0  0  0  0  0  0  0
   21.0815   -1.4764  -10.8010 C   0  0  0  0  0  0  0  0  0  0  0  0
   20.6838   -2.7620  -11.3384 C   0  0  0  0  0  0  0  0  0  0  0  0
   20.3591   -3.7811  -11.7782 N   0  0  0  0  0  0  0  0  0  0  0  0
   22.4189   -1.1237  -10.6790 C   0  0  0  0  0  0  0  0  0  0  0  0
  2  1  1  6
  2  3  1  0
  3  4  1  6
  3  5  1  0
  5  6  2  0
  6  7  1  0
  7  8  2  0
  8  9  1  0
  9 10  2  0
 10 11  1  0
 11 12  1  0
 12 13  2  0
 13 14  1  0
 14 15  1  0
 14 16  2  0
 16 17  1  0
 17 18  1  0
 18 19  3  0
 17 20  2  0
 10  5  1  0
 20 12  1  0
M  END
$$$$
