_rank1
     RDKit          3D

 20 21  0  0  0  0  0  0  0  0999 V2000
   26.4590   -0.1951   -7.7739 C   0  0  0  0  0  0  0  0  0  0  0  0
   27.5308   -0.6759   -8.7276 C   0  0  0  0  0  0  0  0  0  0  0  0
   26.8928   -1.3952   -9.8958 C   0  0  2  0  0  0  0  0  0  0  0  0
   27.8925   -2.2077  -10.4705 O   0  0  0  0  0  0  0  0  0  0  0  0
   26.4317   -0.4708  -10.9435 C   0  0  0  0  0  0  0  0  0  0  0  0
   27.2969   -0.0131  -11.9208 C   0  0  0  0  0  0  0  0  0  0  0  0
   26.8699    0.8581  -12.9113 C   0  0  0  0  0  0  0  0  0  0  0  0
   25.5447    1.2663  -12.9037 C   0  0  0  0  0  0  0  0  0  0  0  0
   24.6531    0.8339  -11.9492 C   0  0  0  0  0  0  0  0  0  0  0  0
   25.1268   -0.0373  -10.9784 C   0  0  0  0  0  0  0  0  0  0  0  0
   24.2783   -0.5231   -9.9704 O   0  0  0  0  0  0  0  0  0  0  0  0
   22.9358   -0.6260  -10.2371 C   0  0  0  0  0  0  0  0  0  0  0  0
   22.4532   -1.6968  -10.9788 C   0  0  0  0  0  0  0  0  0  0  0  0
   21.1130   -1.8469  -11.2747 C   0  0  0  0  0  0  0  0  0  0  0  0
   20.6999   -2.9132  -12.0031 F   0  0  0  0  0  0  0  0  0  0  0  0
   20.2562   -0.8792  -10.7995 C   0  0  0  0  0  0  0  0  0  0  0  0
   20.7145    0.1932  -10.0605 C   0  0  0  0  0  0  0  0  0  0  0  0
   19.7357    1.1595   -9.6045 C   0  0  0  0  0  0  0  0  0  0  0  0
   18.9655    1.9394   -9.2358 N   0  0  0  0  0  0  0  0  0  0  0  0
   22.0644    0.3352   -9.7682 C   0  0  0  0  0  0  0  0  0  0  0  0
  2  1  1  6
  2  3  1  0
  3  4  1  6
  3  5  1  0
  5  6  2  0
  6  7  1  0
  7  8  2  0
  8  9  1  0
  9 10  2  0
 10 11  1  0
 11 12  1  0
 12 13  2  0
 13 14  1  0
 14 15  1  0
 14 16  2  0
 16 17  1  0
 17 18  1  0
 18 19  3  0
 17 20  2  0
 10  5  1  0
 20 12  1  0
M  END
$$$$
