_rank17
     RDKit          3D

 20 21  0  0  0  0  0  0  0  0999 V2000
   25.0752    0.0098  -14.2637 C   0  0  0  0  0  0  0  0  0  0  0  0
   25.3845   -1.2870  -13.5479 C   0  0  0  0  0  0  0  0  0  0  0  0
   25.0307   -1.1609  -12.0823 C   0  0  2  0  0  0  0  0  0  0  0  0
   25.6719   -2.2251  -11.4143 O   0  0  0  0  0  0  0  0  0  0  0  0
   23.5870   -1.3033  -11.8365 C   0  0  0  0  0  0  0  0  0  0  0  0
   22.8748   -2.3624  -12.3694 C   0  0  0  0  0  0  0  0  0  0  0  0
   21.5142   -2.5034  -12.1424 C   0  0  0  0  0  0  0  0  0  0  0  0
   20.8740   -1.5523  -11.3624 C   0  0  0  0  0  0  0  0  0  0  0  0
   21.5469   -0.4845  -10.8144 C   0  0  0  0  0  0  0  0  0  0  0  0
   22.9074   -0.3858  -11.0695 C   0  0  0  0  0  0  0  0  0  0  0  0
   23.6636    0.6753  -10.5456 O   0  0  0  0  0  0  0  0  0  0  0  0
   24.2571    0.5137   -9.3185 C   0  0  0  0  0  0  0  0  0  0  0  0
   23.4757    0.4195   -8.1739 C   0  0  0  0  0  0  0  0  0  0  0  0
   24.0227    0.2566   -6.9168 C   0  0  0  0  0  0  0  0  0  0  0  0
   23.2097    0.1707   -5.8350 F   0  0  0  0  0  0  0  0  0  0  0  0
   25.3958    0.1895   -6.8368 C   0  0  0  0  0  0  0  0  0  0  0  0
   26.1912    0.2809   -7.9616 C   0  0  0  0  0  0  0  0  0  0  0  0
   27.6260    0.1994   -7.7755 C   0  0  0  0  0  0  0  0  0  0  0  0
   28.7715    0.1491   -7.6249 N   0  0  0  0  0  0  0  0  0  0  0  0
   25.6315    0.4447   -9.2216 C   0  0  0  0  0  0  0  0  0  0  0  0
  2  1  1  6
  2  3  1  0
  3  4  1  1
  3  5  1  0
  5  6  2  0
  6  7  1  0
  7  8  2  0
  8  9  1  0
  9 10  2  0
 10 11  1  0
 11 12  1  0
 12 13  2  0
 13 14  1  0
 14 15  1  0
 14 16  2  0
 16 17  1  0
 17 18  1  0
 18 19  3  0
 17 20  2  0
 10  5  1  0
 20 12  1  0
M  END
$$$$
