_rank19
     RDKit          3D

 18 19  0  0  0  0  0  0  0  0999 V2000
   29.2233    0.7633  -12.6045 C   0  0  0  0  0  0  0  0  0  0  0  0
   27.8134    0.9777  -12.1608 C   0  0  0  0  0  0  0  0  0  0  0  0
   26.8624    1.0041  -13.2471 N   0  0  0  0  0  0  0  0  0  0  0  0
   25.7304    0.1319  -13.0065 C   0  0  2  0  0  0  0  0  0  0  0  0
   24.6504    0.3066  -14.0152 C   0  0  0  0  0  0  0  0  0  0  0  0
   23.4313   -0.2338  -13.2919 C   0  0  0  0  0  0  0  0  0  0  0  0
   23.5754    0.2834  -11.8764 C   0  0  1  0  0  0  0  0  0  0  0  0
   22.9961   -0.5863  -10.9675 O   0  0  0  0  0  0  0  0  0  0  0  0
   22.1959   -0.3177   -9.8996 C   0  0  0  0  0  0  0  0  0  0  0  0
   20.9445    0.2519  -10.0695 C   0  0  0  0  0  0  0  0  0  0  0  0
   20.1820    0.4998   -8.9452 C   0  0  0  0  0  0  0  0  0  0  0  0
   18.9538    1.0568   -9.1024 F   0  0  0  0  0  0  0  0  0  0  0  0
   20.6307    0.1978   -7.6702 C   0  0  0  0  0  0  0  0  0  0  0  0
   21.8842   -0.3733   -7.4885 C   0  0  0  0  0  0  0  0  0  0  0  0
   22.3296   -0.6739   -6.1808 C   0  0  0  0  0  0  0  0  0  0  0  0
   22.6910   -0.9427   -5.0855 N   0  0  0  0  0  0  0  0  0  0  0  0
   22.6296   -0.6132   -8.6206 C   0  0  0  0  0  0  0  0  0  0  0  0
   25.0710    0.4205  -11.6800 C   0  0  0  0  0  0  0  0  0  0  0  0
  1  2  1  6
  2  3  1  1
  4  3  1  6
  4  5  1  0
  5  6  1  1
  6  7  1  1
  7  8  1  1
  8  9  1  0
  9 10  2  0
 10 11  1  0
 11 12  1  0
 11 13  2  0
 13 14  1  0
 14 15  1  0
 15 16  3  0
 14 17  2  0
 18  7  1  1
 18  4  1  0
 17  9  1  0
M  END
$$$$
