_rank7
     RDKit          3D

 18 19  0  0  0  0  0  0  0  0999 V2000
   29.8525   -0.7498  -12.0766 C   0  0  0  0  0  0  0  0  0  0  0  0
   28.6761   -0.0033  -11.5387 C   0  0  0  0  0  0  0  0  0  0  0  0
   27.4052   -0.5522  -11.9495 N   0  0  0  0  0  0  0  0  0  0  0  0
   26.2855    0.1790  -11.3911 C   0  0  2  0  0  0  0  0  0  0  0  0
   26.2128    0.0672   -9.9090 C   0  0  0  0  0  0  0  0  0  0  0  0
   24.7589    0.3929   -9.6234 C   0  0  0  0  0  0  0  0  0  0  0  0
   23.9936   -0.3141  -10.7218 C   0  0  1  0  0  0  0  0  0  0  0  0
   22.8237    0.3613  -11.0273 O   0  0  0  0  0  0  0  0  0  0  0  0
   21.5298   -0.0232  -10.8522 C   0  0  0  0  0  0  0  0  0  0  0  0
   21.0992   -1.2814  -11.2407 C   0  0  0  0  0  0  0  0  0  0  0  0
   19.7736   -1.6098  -11.0361 C   0  0  0  0  0  0  0  0  0  0  0  0
   19.3431   -2.8411  -11.4127 F   0  0  0  0  0  0  0  0  0  0  0  0
   18.8766   -0.7253  -10.4606 C   0  0  0  0  0  0  0  0  0  0  0  0
   19.2978    0.5390  -10.0675 C   0  0  0  0  0  0  0  0  0  0  0  0
   18.3701    1.4319   -9.4835 C   0  0  0  0  0  0  0  0  0  0  0  0
   17.5996    2.1948   -9.0072 N   0  0  0  0  0  0  0  0  0  0  0  0
   20.6223    0.8483  -10.2793 C   0  0  0  0  0  0  0  0  0  0  0  0
   24.9633   -0.3555  -11.8846 C   0  0  0  0  0  0  0  0  0  0  0  0
  1  2  1  6
  2  3  1  1
  4  3  1  6
  4  5  1  0
  5  6  1  1
  6  7  1  1
  7  8  1  6
  8  9  1  0
  9 10  2  0
 10 11  1  0
 11 12  1  0
 11 13  2  0
 13 14  1  0
 14 15  1  0
 15 16  3  0
 14 17  2  0
 18  7  1  1
 18  4  1  0
 17  9  1  0
M  END
$$$$
