_rank3
     RDKit          3D

 18 19  0  0  0  0  0  0  0  0999 V2000
   27.8800    0.1650   -7.9117 C   0  0  0  0  0  0  0  0  0  0  0  0
   27.0221   -0.5158   -8.9271 C   0  0  0  0  0  0  0  0  0  0  0  0
   27.0131    0.1428  -10.2122 N   0  0  0  0  0  0  0  0  0  0  0  0
   25.9305   -0.3190  -11.0577 C   0  0  2  0  0  0  0  0  0  0  0  0
   25.9186    0.3503  -12.3867 C   0  0  0  0  0  0  0  0  0  0  0  0
   24.4838    0.1594  -12.8408 C   0  0  0  0  0  0  0  0  0  0  0  0
   23.6610    0.3940  -11.5918 C   0  0  1  0  0  0  0  0  0  0  0  0
   22.4907   -0.3461  -11.6205 O   0  0  0  0  0  0  0  0  0  0  0  0
   21.4262   -0.3180  -10.7726 C   0  0  0  0  0  0  0  0  0  0  0  0
   20.5103    0.7207  -10.8093 C   0  0  0  0  0  0  0  0  0  0  0  0
   19.4528    0.6903   -9.9219 C   0  0  0  0  0  0  0  0  0  0  0  0
   18.5497    1.7036   -9.9516 F   0  0  0  0  0  0  0  0  0  0  0  0
   19.2873   -0.3380   -9.0090 C   0  0  0  0  0  0  0  0  0  0  0  0
   20.2001   -1.3846   -8.9635 C   0  0  0  0  0  0  0  0  0  0  0  0
   20.0194   -2.4260   -8.0246 C   0  0  0  0  0  0  0  0  0  0  0  0
   19.8645   -3.2843   -7.2234 N   0  0  0  0  0  0  0  0  0  0  0  0
   21.2474   -1.3370   -9.8556 C   0  0  0  0  0  0  0  0  0  0  0  0
   24.5798   -0.0125  -10.4583 C   0  0  0  0  0  0  0  0  0  0  0  0
  1  2  1  6
  2  3  1  1
  4  3  1  1
  4  5  1  0
  5  6  1  1
  6  7  1  1
  7  8  1  6
  8  9  1  0
  9 10  2  0
 10 11  1  0
 11 12  1  0
 11 13  2  0
 13 14  1  0
 14 15  1  0
 15 16  3  0
 14 17  2  0
 18  7  1  1
 18  4  1  0
 17  9  1  0
M  END
$$$$
