_rank16
     RDKit          3D

 18 19  0  0  0  0  0  0  0  0999 V2000
   20.0174   -4.5490  -10.7431 C   0  0  0  0  0  0  0  0  0  0  0  0
   19.3033   -3.2514  -10.5520 C   0  0  0  0  0  0  0  0  0  0  0  0
   19.6688   -2.2418  -11.5176 N   0  0  0  0  0  0  0  0  0  0  0  0
   20.3742   -1.1313  -10.9100 C   0  0  2  0  0  0  0  0  0  0  0  0
   20.1750    0.1448  -11.6492 C   0  0  0  0  0  0  0  0  0  0  0  0
   21.3704    0.9704  -11.2125 C   0  0  0  0  0  0  0  0  0  0  0  0
   22.5211   -0.0132  -11.2006 C   0  0  1  0  0  0  0  0  0  0  0  0
   23.4657    0.3374  -10.2503 O   0  0  0  0  0  0  0  0  0  0  0  0
   24.7986    0.0642  -10.2109 C   0  0  0  0  0  0  0  0  0  0  0  0
   25.4791   -0.3405  -11.3477 C   0  0  0  0  0  0  0  0  0  0  0  0
   26.8307   -0.6029  -11.2408 C   0  0  0  0  0  0  0  0  0  0  0  0
   27.5059   -0.9989  -12.3501 F   0  0  0  0  0  0  0  0  0  0  0  0
   27.5130   -0.4735  -10.0425 C   0  0  0  0  0  0  0  0  0  0  0  0
   26.8401   -0.0686   -8.8963 C   0  0  0  0  0  0  0  0  0  0  0  0
   27.5495    0.0567   -7.6798 C   0  0  0  0  0  0  0  0  0  0  0  0
   28.1398    0.1820   -6.6608 N   0  0  0  0  0  0  0  0  0  0  0  0
   25.4937    0.1884   -9.0224 C   0  0  0  0  0  0  0  0  0  0  0  0
   21.8677   -1.3480  -10.9079 C   0  0  0  0  0  0  0  0  0  0  0  0
  1  2  1  6
  2  3  1  1
  4  3  1  6
  4  5  1  0
  5  6  1  1
  6  7  1  1
  7  8  1  1
  8  9  1  0
  9 10  2  0
 10 11  1  0
 11 12  1  0
 11 13  2  0
 13 14  1  0
 14 15  1  0
 15 16  3  0
 14 17  2  0
 18  7  1  1
 18  4  1  0
 17  9  1  0
M  END
$$$$
