_rank1
     RDKit          3D

 18 19  0  0  0  0  0  0  0  0999 V2000
   27.9572   -0.4121   -7.7780 C   0  0  0  0  0  0  0  0  0  0  0  0
   26.9889   -0.6353   -8.8929 C   0  0  0  0  0  0  0  0  0  0  0  0
   27.2991    0.1142  -10.0876 N   0  0  0  0  0  0  0  0  0  0  0  0
   26.3339   -0.1138  -11.1443 C   0  0  2  0  0  0  0  0  0  0  0  0
   26.3715    0.9443  -12.1900 C   0  0  0  0  0  0  0  0  0  0  0  0
   25.0009    0.8266  -12.8295 C   0  0  0  0  0  0  0  0  0  0  0  0
   24.0616    0.6007  -11.6639 C   0  0  1  0  0  0  0  0  0  0  0  0
   22.9673   -0.1572  -12.0463 O   0  0  0  0  0  0  0  0  0  0  0  0
   21.8117   -0.4122  -11.3737 C   0  0  0  0  0  0  0  0  0  0  0  0
   21.3340   -1.7056  -11.2383 C   0  0  0  0  0  0  0  0  0  0  0  0
   20.1553   -1.8969  -10.5448 C   0  0  0  0  0  0  0  0  0  0  0  0
   19.6803   -3.1613  -10.4062 F   0  0  0  0  0  0  0  0  0  0  0  0
   19.4488   -0.8432   -9.9892 C   0  0  0  0  0  0  0  0  0  0  0  0
   19.9188    0.4578  -10.1193 C   0  0  0  0  0  0  0  0  0  0  0  0
   19.1856    1.5235   -9.5489 C   0  0  0  0  0  0  0  0  0  0  0  0
   18.5658    2.4224   -9.0900 N   0  0  0  0  0  0  0  0  0  0  0  0
   21.0950    0.6289  -10.8137 C   0  0  0  0  0  0  0  0  0  0  0  0
   24.9171   -0.0940  -10.6248 C   0  0  0  0  0  0  0  0  0  0  0  0
  1  2  1  6
  2  3  1  1
  4  3  1  1
  4  5  1  0
  5  6  1  1
  6  7  1  1
  7  8  1  6
  8  9  1  0
  9 10  2  0
 10 11  1  0
 11 12  1  0
 11 13  2  0
 13 14  1  0
 14 15  1  0
 15 16  3  0
 14 17  2  0
 18  7  1  1
 18  4  1  0
 17  9  1  0
M  END
$$$$
