_rank13
     RDKit          3D

 18 19  0  0  0  0  0  0  0  0999 V2000
   16.7300   -0.9523  -10.9022 C   0  0  0  0  0  0  0  0  0  0  0  0
   18.0946   -0.9788  -11.5086 C   0  0  0  0  0  0  0  0  0  0  0  0
   19.1554   -0.7456  -10.5570 N   0  0  0  0  0  0  0  0  0  0  0  0
   20.4581   -0.6922  -11.1898 C   0  0  2  0  0  0  0  0  0  0  0  0
   20.8483   -1.9903  -11.8037 C   0  0  0  0  0  0  0  0  0  0  0  0
   22.3589   -1.8772  -11.8853 C   0  0  0  0  0  0  0  0  0  0  0  0
   22.7571   -1.2254  -10.5782 C   0  0  1  0  0  0  0  0  0  0  0  0
   23.9059   -0.4669  -10.7301 O   0  0  0  0  0  0  0  0  0  0  0  0
   25.0305   -0.4340   -9.9639 C   0  0  0  0  0  0  0  0  0  0  0  0
   25.1350   -1.2001   -8.8144 C   0  0  0  0  0  0  0  0  0  0  0  0
   26.3023   -1.1209   -8.0809 C   0  0  0  0  0  0  0  0  0  0  0  0
   26.4139   -1.8692   -6.9535 F   0  0  0  0  0  0  0  0  0  0  0  0
   27.3562   -0.3063   -8.4603 C   0  0  0  0  0  0  0  0  0  0  0  0
   27.2619    0.4663   -9.6112 C   0  0  0  0  0  0  0  0  0  0  0  0
   28.3449    1.2948   -9.9846 C   0  0  0  0  0  0  0  0  0  0  0  0
   29.2576    1.9749  -10.3116 N   0  0  0  0  0  0  0  0  0  0  0  0
   26.0910    0.3742  -10.3292 C   0  0  0  0  0  0  0  0  0  0  0  0
   21.5531   -0.3895  -10.1963 C   0  0  0  0  0  0  0  0  0  0  0  0
  1  2  1  6
  2  3  1  1
  4  3  1  1
  4  5  1  0
  5  6  1  1
  6  7  1  1
  7  8  1  6
  8  9  1  0
  9 10  2  0
 10 11  1  0
 11 12  1  0
 11 13  2  0
 13 14  1  0
 14 15  1  0
 15 16  3  0
 14 17  2  0
 18  7  1  1
 18  4  1  0
 17  9  1  0
M  END
$$$$
