_rank12
     RDKit          3D

 18 19  0  0  0  0  0  0  0  0999 V2000
   18.3942   -3.8079  -11.5119 C   0  0  0  0  0  0  0  0  0  0  0  0
   19.4662   -2.9374  -10.9429 C   0  0  0  0  0  0  0  0  0  0  0  0
   19.4032   -1.5687  -11.3990 N   0  0  0  0  0  0  0  0  0  0  0  0
   20.3786   -0.7249  -10.7383 C   0  0  2  0  0  0  0  0  0  0  0  0
   20.7482    0.4653  -11.5516 C   0  0  0  0  0  0  0  0  0  0  0  0
   22.0954    0.8558  -10.9738 C   0  0  0  0  0  0  0  0  0  0  0  0
   22.8026   -0.4634  -10.7470 C   0  0  1  0  0  0  0  0  0  0  0  0
   23.6818   -0.3797   -9.6801 O   0  0  0  0  0  0  0  0  0  0  0  0
   25.0401   -0.4676   -9.6672 C   0  0  0  0  0  0  0  0  0  0  0  0
   25.7033   -1.1389   -8.6529 C   0  0  0  0  0  0  0  0  0  0  0  0
   27.0825   -1.1912   -8.6977 C   0  0  0  0  0  0  0  0  0  0  0  0
   27.7407   -1.8480   -7.7084 F   0  0  0  0  0  0  0  0  0  0  0  0
   27.8089   -0.5978   -9.7167 C   0  0  0  0  0  0  0  0  0  0  0  0
   27.1538    0.0780  -10.7387 C   0  0  0  0  0  0  0  0  0  0  0  0
   27.9088    0.6808  -11.7709 C   0  0  0  0  0  0  0  0  0  0  0  0
   28.5538    1.1941  -12.6213 N   0  0  0  0  0  0  0  0  0  0  0  0
   25.7793    0.1196  -10.6772 C   0  0  0  0  0  0  0  0  0  0  0  0
   21.6804   -1.4506  -10.5013 C   0  0  0  0  0  0  0  0  0  0  0  0
  1  2  1  6
  2  3  1  1
  4  3  1  6
  4  5  1  0
  5  6  1  1
  6  7  1  1
  7  8  1  1
  8  9  1  0
  9 10  2  0
 10 11  1  0
 11 12  1  0
 11 13  2  0
 13 14  1  0
 14 15  1  0
 15 16  3  0
 14 17  2  0
 18  7  1  1
 18  4  1  0
 17  9  1  0
M  END
$$$$
