_rank4
     RDKit          3D

 18 19  0  0  0  0  0  0  0  0999 V2000
   27.8432   -0.5410  -13.1217 C   0  0  0  0  0  0  0  0  0  0  0  0
   27.8206   -0.7555  -11.6439 C   0  0  0  0  0  0  0  0  0  0  0  0
   27.7537    0.4695  -10.8822 N   0  0  0  0  0  0  0  0  0  0  0  0
   26.5268    0.5740  -10.1181 C   0  0  2  0  0  0  0  0  0  0  0  0
   26.3681   -0.5348   -9.1384 C   0  0  0  0  0  0  0  0  0  0  0  0
   24.8718   -0.5446   -8.8889 C   0  0  0  0  0  0  0  0  0  0  0  0
   24.2623   -0.3189  -10.2563 C   0  0  1  0  0  0  0  0  0  0  0  0
   23.0491    0.3418  -10.1574 O   0  0  0  0  0  0  0  0  0  0  0  0
   21.7843   -0.1609  -10.1766 C   0  0  0  0  0  0  0  0  0  0  0  0
   21.5586   -1.5258  -10.2502 C   0  0  0  0  0  0  0  0  0  0  0  0
   20.2517   -1.9714  -10.2666 C   0  0  0  0  0  0  0  0  0  0  0  0
   20.0211   -3.3075  -10.3374 F   0  0  0  0  0  0  0  0  0  0  0  0
   19.1762   -1.1004  -10.2122 C   0  0  0  0  0  0  0  0  0  0  0  0
   19.3913    0.2703  -10.1384 C   0  0  0  0  0  0  0  0  0  0  0  0
   18.2836    1.1472  -10.0859 C   0  0  0  0  0  0  0  0  0  0  0  0
   17.3456    1.8682  -10.0300 N   0  0  0  0  0  0  0  0  0  0  0  0
   20.7004    0.6956  -10.1231 C   0  0  0  0  0  0  0  0  0  0  0  0
   25.3060    0.4875  -11.0011 C   0  0  0  0  0  0  0  0  0  0  0  0
  1  2  1  6
  2  3  1  1
  4  3  1  6
  4  5  1  0
  5  6  1  1
  6  7  1  1
  7  8  1  1
  8  9  1  0
  9 10  2  0
 10 11  1  0
 11 12  1  0
 11 13  2  0
 13 14  1  0
 14 15  1  0
 15 16  3  0
 14 17  2  0
 18  7  1  1
 18  4  1  0
 17  9  1  0
M  END
$$$$
