_rank8
     RDKit          3D

 18 19  0  0  0  0  0  0  0  0999 V2000
   16.9136   -2.2197   -9.8753 C   0  0  0  0  0  0  0  0  0  0  0  0
   18.0534   -1.7124  -10.6963 C   0  0  0  0  0  0  0  0  0  0  0  0
   19.2603   -1.4892   -9.9356 N   0  0  0  0  0  0  0  0  0  0  0  0
   20.3585   -1.0408  -10.7682 C   0  0  2  0  0  0  0  0  0  0  0  0
   20.8497   -2.1038  -11.6866 C   0  0  0  0  0  0  0  0  0  0  0  0
   22.2551   -1.6354  -12.0134 C   0  0  0  0  0  0  0  0  0  0  0  0
   22.7941   -1.1195  -10.6961 C   0  0  1  0  0  0  0  0  0  0  0  0
   23.7131   -0.1033  -10.8982 O   0  0  0  0  0  0  0  0  0  0  0  0
   25.0724   -0.1385  -10.8350 C   0  0  0  0  0  0  0  0  0  0  0  0
   25.8411   -0.1619  -11.9873 C   0  0  0  0  0  0  0  0  0  0  0  0
   27.2152   -0.1979  -11.8548 C   0  0  0  0  0  0  0  0  0  0  0  0
   27.9765   -0.2198  -12.9788 F   0  0  0  0  0  0  0  0  0  0  0  0
   27.8351   -0.2112  -10.6164 C   0  0  0  0  0  0  0  0  0  0  0  0
   27.0737   -0.1881   -9.4544 C   0  0  0  0  0  0  0  0  0  0  0  0
   27.7205   -0.2045   -8.1974 C   0  0  0  0  0  0  0  0  0  0  0  0
   28.2750   -0.2330   -7.1513 N   0  0  0  0  0  0  0  0  0  0  0  0
   25.7060   -0.1523   -9.6064 C   0  0  0  0  0  0  0  0  0  0  0  0
   21.5635   -0.6519   -9.9471 C   0  0  0  0  0  0  0  0  0  0  0  0
  1  2  1  6
  2  3  1  1
  4  3  1  1
  4  5  1  0
  5  6  1  1
  6  7  1  1
  7  8  1  6
  8  9  1  0
  9 10  2  0
 10 11  1  0
 11 12  1  0
 11 13  2  0
 13 14  1  0
 14 15  1  0
 15 16  3  0
 14 17  2  0
 18  7  1  1
 18  4  1  0
 17  9  1  0
M  END
$$$$
