_rank18
     RDKit          3D

 18 19  0  0  0  0  0  0  0  0999 V2000
   20.2493   -4.5114  -11.3042 C   0  0  0  0  0  0  0  0  0  0  0  0
   20.7608   -3.3790  -10.4756 C   0  0  0  0  0  0  0  0  0  0  0  0
   19.8678   -2.2450  -10.4310 N   0  0  0  0  0  0  0  0  0  0  0  0
   20.5527   -1.0215  -10.0648 C   0  0  2  0  0  0  0  0  0  0  0  0
   20.0055    0.1711  -10.7667 C   0  0  0  0  0  0  0  0  0  0  0  0
   21.1536    1.1593  -10.6846 C   0  0  0  0  0  0  0  0  0  0  0  0
   22.3881    0.3218  -10.9426 C   0  0  1  0  0  0  0  0  0  0  0  0
   23.4895    0.8431  -10.2842 O   0  0  0  0  0  0  0  0  0  0  0  0
   24.7977    0.4742  -10.3570 C   0  0  0  0  0  0  0  0  0  0  0  0
   25.4244    0.3009  -11.5804 C   0  0  0  0  0  0  0  0  0  0  0  0
   26.7533   -0.0747  -11.5857 C   0  0  0  0  0  0  0  0  0  0  0  0
   27.3759   -0.2456  -12.7800 F   0  0  0  0  0  0  0  0  0  0  0  0
   27.4650   -0.2796  -10.4153 C   0  0  0  0  0  0  0  0  0  0  0  0
   26.8461   -0.1088   -9.1831 C   0  0  0  0  0  0  0  0  0  0  0  0
   27.5847   -0.3240   -7.9970 C   0  0  0  0  0  0  0  0  0  0  0  0
   28.2046   -0.4837   -7.0006 N   0  0  0  0  0  0  0  0  0  0  0  0
   25.5215    0.2656   -9.1978 C   0  0  0  0  0  0  0  0  0  0  0  0
   22.0123   -1.0591  -10.4466 C   0  0  0  0  0  0  0  0  0  0  0  0
  1  2  1  6
  2  3  1  1
  4  3  1  6
  4  5  1  0
  5  6  1  1
  6  7  1  1
  7  8  1  1
  8  9  1  0
  9 10  2  0
 10 11  1  0
 11 12  1  0
 11 13  2  0
 13 14  1  0
 14 15  1  0
 15 16  3  0
 14 17  2  0
 18  7  1  1
 18  4  1  0
 17  9  1  0
M  END
$$$$
