_rank13
     RDKit          3D

 19 21  0  0  0  0  0  0  0  0999 V2000
   28.6904   -1.0847   -8.5085 C   0  0  0  0  0  0  0  0  0  0  0  0
   27.1209   -0.2631   -8.4684 S   0  0  2  0  0  6  0  0  0  0  0  0
   27.2445    1.2075   -8.2862 O   0  0  0  0  0  0  0  0  0  0  0  0
   26.2555   -0.8216   -7.3734 O   0  0  0  0  0  0  0  0  0  0  0  0
   26.2344   -0.5219  -10.0106 C   0  0  2  0  0  0  0  0  0  0  0  0
   26.9246    0.2394  -11.1257 C   0  0  0  0  0  0  0  0  0  0  0  0
   25.8788    0.7609  -12.0883 C   0  0  0  0  0  0  0  0  0  0  0  0
   24.7538   -0.2646  -12.2409 C   0  0  0  0  0  0  0  0  0  0  0  0
   23.9361   -0.1813  -10.9665 C   0  0  1  0  0  0  0  0  0  0  0  0
   24.8248   -0.0112   -9.7742 C   0  0  0  0  0  0  0  0  0  0  0  0
   23.0072    0.9199  -11.1382 N   0  0  0  0  0  0  0  0  0  0  0  0
   21.7701    0.4644  -10.5837 C   0  0  0  0  0  0  0  0  0  0  0  0
   20.6023    1.1742  -10.2689 C   0  0  0  0  0  0  0  0  0  0  0  0
   19.5562    0.4662   -9.7409 C   0  0  0  0  0  0  0  0  0  0  0  0
   18.4080    1.1291   -9.4249 F   0  0  0  0  0  0  0  0  0  0  0  0
   19.6386   -0.8860   -9.5248 C   0  0  0  0  0  0  0  0  0  0  0  0
   20.7891   -1.5752   -9.8369 C   0  0  0  0  0  0  0  0  0  0  0  0
   21.8865   -0.8862  -10.3809 C   0  0  0  0  0  0  0  0  0  0  0  0
   23.1372   -1.3177  -10.7782 O   0  0  0  0  0  0  0  0  0  0  0  0
  2  1  1  6
  2  3  2  0
  2  4  2  0
  5  2  1  1
  6  5  1  6
  7  6  1  1
  8  7  1  6
  8  9  1  0
 10  9  1  1
  9 11  1  6
 11 12  1  0
 12 13  2  0
 13 14  1  0
 14 15  1  0
 14 16  2  0
 16 17  1  0
 17 18  2  0
 18 19  1  0
 10  5  1  0
 18 12  1  0
  9 19  1  0
M  END
$$$$
