_rank10
     RDKit          3D

 19 21  0  0  0  0  0  0  0  0999 V2000
   28.2530    0.9274   -8.6205 C   0  0  0  0  0  0  0  0  0  0  0  0
   26.8881   -0.1900   -8.4512 S   0  0  2  0  0  6  0  0  0  0  0  0
   25.8174    0.3379   -7.5647 O   0  0  0  0  0  0  0  0  0  0  0  0
   27.3508   -1.5192   -7.9230 O   0  0  0  0  0  0  0  0  0  0  0  0
   26.1294   -0.5049  -10.0501 C   0  0  2  0  0  0  0  0  0  0  0  0
   26.8325    0.3146  -11.1147 C   0  0  0  0  0  0  0  0  0  0  0  0
   25.8167    0.7616  -12.1447 C   0  0  0  0  0  0  0  0  0  0  0  0
   24.7863   -0.3455  -12.3746 C   0  0  0  0  0  0  0  0  0  0  0  0
   23.8810   -0.3337  -11.1580 C   0  0  1  0  0  0  0  0  0  0  0  0
   24.6722   -0.1048   -9.9083 C   0  0  0  0  0  0  0  0  0  0  0  0
   22.8842    0.6945  -11.3899 N   0  0  0  0  0  0  0  0  0  0  0  0
   21.6512    0.1422  -10.9208 C   0  0  0  0  0  0  0  0  0  0  0  0
   20.4140    0.7587  -10.6840 C   0  0  0  0  0  0  0  0  0  0  0  0
   19.3921   -0.0307  -10.2290 C   0  0  0  0  0  0  0  0  0  0  0  0
   18.1780    0.5405   -9.9899 F   0  0  0  0  0  0  0  0  0  0  0  0
   19.5632   -1.3741  -10.0104 C   0  0  0  0  0  0  0  0  0  0  0  0
   20.7814   -1.9714  -10.2455 C   0  0  0  0  0  0  0  0  0  0  0  0
   21.8568   -1.1970  -10.7131 C   0  0  0  0  0  0  0  0  0  0  0  0
   23.1607   -1.5291  -11.0261 O   0  0  0  0  0  0  0  0  0  0  0  0
  2  1  1  6
  2  3  2  0
  2  4  2  0
  5  2  1  1
  6  5  1  6
  7  6  1  1
  8  7  1  6
  8  9  1  0
 10  9  1  1
  9 11  1  6
 11 12  1  0
 12 13  2  0
 13 14  1  0
 14 15  1  0
 14 16  2  0
 16 17  1  0
 17 18  2  0
 18 19  1  0
 10  5  1  0
 18 12  1  0
  9 19  1  0
M  END
$$$$
