_rank14
     RDKit          3D

 19 21  0  0  0  0  0  0  0  0999 V2000
   28.5305   -0.7260   -8.2521 C   0  0  0  0  0  0  0  0  0  0  0  0
   26.9963    0.1393   -8.4462 S   0  0  2  0  0  6  0  0  0  0  0  0
   27.1828    1.5685   -8.8118 O   0  0  0  0  0  0  0  0  0  0  0  0
   26.1765    0.0579   -7.1889 O   0  0  0  0  0  0  0  0  0  0  0  0
   26.0132   -0.6065   -9.7534 C   0  0  2  0  0  0  0  0  0  0  0  0
   26.7260   -0.4395  -11.0814 C   0  0  0  0  0  0  0  0  0  0  0  0
   25.6965   -0.2258  -12.1709 C   0  0  0  0  0  0  0  0  0  0  0  0
   24.4621   -1.0870  -11.8971 C   0  0  0  0  0  0  0  0  0  0  0  0
   23.7209   -0.4072  -10.7621 C   0  0  1  0  0  0  0  0  0  0  0  0
   24.6797    0.1181   -9.7398 C   0  0  0  0  0  0  0  0  0  0  0  0
   22.9081    0.6352  -11.3601 N   0  0  0  0  0  0  0  0  0  0  0  0
   21.6578    0.5874  -10.6674 C   0  0  0  0  0  0  0  0  0  0  0  0
   20.5894    1.4959  -10.6622 C   0  0  0  0  0  0  0  0  0  0  0  0
   19.5004    1.1854   -9.8928 C   0  0  0  0  0  0  0  0  0  0  0  0
   18.4465    2.0493   -9.8678 F   0  0  0  0  0  0  0  0  0  0  0  0
   19.4479    0.0319   -9.1522 C   0  0  0  0  0  0  0  0  0  0  0  0
   20.5014   -0.8547   -9.1631 C   0  0  0  0  0  0  0  0  0  0  0  0
   21.6385   -0.5739   -9.9396 C   0  0  0  0  0  0  0  0  0  0  0  0
   22.8150   -1.2719  -10.1323 O   0  0  0  0  0  0  0  0  0  0  0  0
  2  1  1  1
  2  3  2  0
  2  4  2  0
  5  2  1  1
  6  5  1  6
  7  6  1  1
  8  7  1  6
  8  9  1  0
 10  9  1  1
  9 11  1  6
 11 12  1  0
 12 13  2  0
 13 14  1  0
 14 15  1  0
 14 16  2  0
 16 17  1  0
 17 18  2  0
 18 19  1  0
 10  5  1  0
 18 12  1  0
  9 19  1  0
M  END
$$$$
