_rank16
     RDKit          3D

 19 21  0  0  0  0  0  0  0  0999 V2000
   28.8086   -0.8126   -8.3472 C   0  0  0  0  0  0  0  0  0  0  0  0
   27.2152   -0.0396   -8.4060 S   0  0  2  0  0  6  0  0  0  0  0  0
   27.2882    1.4070   -8.7421 O   0  0  0  0  0  0  0  0  0  0  0  0
   26.4957   -0.2028   -7.0963 O   0  0  0  0  0  0  0  0  0  0  0  0
   26.1859   -0.8123   -9.6609 C   0  0  2  0  0  0  0  0  0  0  0  0
   26.8985   -0.7676  -10.9987 C   0  0  0  0  0  0  0  0  0  0  0  0
   25.8753   -0.5678  -12.0967 C   0  0  0  0  0  0  0  0  0  0  0  0
   24.5984   -1.3427  -11.7659 C   0  0  0  0  0  0  0  0  0  0  0  0
   23.9014   -0.5541  -10.6741 C   0  0  1  0  0  0  0  0  0  0  0  0
   24.8929   -0.0178   -9.6896 C   0  0  0  0  0  0  0  0  0  0  0  0
   23.1417    0.4907  -11.3345 N   0  0  0  0  0  0  0  0  0  0  0  0
   21.8949    0.5536  -10.6369 C   0  0  0  0  0  0  0  0  0  0  0  0
   20.8765    1.5166  -10.6862 C   0  0  0  0  0  0  0  0  0  0  0  0
   19.7771    1.3139   -9.8958 C   0  0  0  0  0  0  0  0  0  0  0  0
   18.7710    2.2330   -9.9226 F   0  0  0  0  0  0  0  0  0  0  0  0
   19.6677    0.2137   -9.0838 C   0  0  0  0  0  0  0  0  0  0  0  0
   20.6723   -0.7271   -9.0415 C   0  0  0  0  0  0  0  0  0  0  0  0
   21.8180   -0.5570   -9.8372 C   0  0  0  0  0  0  0  0  0  0  0  0
   22.9545   -1.3278   -9.9886 O   0  0  0  0  0  0  0  0  0  0  0  0
  2  1  1  1
  2  3  2  0
  2  4  2  0
  5  2  1  1
  6  5  1  6
  7  6  1  1
  8  7  1  6
  8  9  1  0
 10  9  1  1
  9 11  1  6
 11 12  1  0
 12 13  2  0
 13 14  1  0
 14 15  1  0
 14 16  2  0
 16 17  1  0
 17 18  2  0
 18 19  1  0
 10  5  1  0
 18 12  1  0
  9 19  1  0
M  END
$$$$
