_rank3
     RDKit          3D

 19 21  0  0  0  0  0  0  0  0999 V2000
   27.1813    1.4405   -8.3700 C   0  0  0  0  0  0  0  0  0  0  0  0
   26.9997   -0.3036   -8.6256 S   0  0  2  0  0  6  0  0  0  0  0  0
   26.1696   -0.9563   -7.5788 O   0  0  0  0  0  0  0  0  0  0  0  0
   28.3428   -0.9768   -8.6765 O   0  0  0  0  0  0  0  0  0  0  0  0
   26.1981   -0.6295  -10.2013 C   0  0  2  0  0  0  0  0  0  0  0  0
   26.9565    0.0735  -11.3104 C   0  0  0  0  0  0  0  0  0  0  0  0
   25.9708    0.5556  -12.3537 C   0  0  0  0  0  0  0  0  0  0  0  0
   24.8466   -0.4684  -12.5207 C   0  0  0  0  0  0  0  0  0  0  0  0
   23.9599   -0.3192  -11.2995 C   0  0  1  0  0  0  0  0  0  0  0  0
   24.7824   -0.0987  -10.0686 C   0  0  0  0  0  0  0  0  0  0  0  0
   23.0524    0.7786  -11.5747 N   0  0  0  0  0  0  0  0  0  0  0  0
   21.7822    0.3582  -11.0697 C   0  0  0  0  0  0  0  0  0  0  0  0
   20.6052    1.0900  -10.8546 C   0  0  0  0  0  0  0  0  0  0  0  0
   19.5248    0.4148  -10.3534 C   0  0  0  0  0  0  0  0  0  0  0  0
   18.3670    1.0996  -10.1339 F   0  0  0  0  0  0  0  0  0  0  0  0
   19.5825   -0.9261  -10.0697 C   0  0  0  0  0  0  0  0  0  0  0  0
   20.7421   -1.6370  -10.2839 C   0  0  0  0  0  0  0  0  0  0  0  0
   21.8744   -0.9820  -10.7973 C   0  0  0  0  0  0  0  0  0  0  0  0
   23.1413   -1.4402  -11.1032 O   0  0  0  0  0  0  0  0  0  0  0  0
  2  1  1  1
  2  3  2  0
  2  4  2  0
  5  2  1  1
  6  5  1  6
  7  6  1  1
  8  7  1  6
  8  9  1  0
 10  9  1  1
  9 11  1  6
 11 12  1  0
 12 13  2  0
 13 14  1  0
 14 15  1  0
 14 16  2  0
 16 17  1  0
 17 18  2  0
 18 19  1  0
 10  5  1  0
 18 12  1  0
  9 19  1  0
M  END
$$$$
