_rank20
     RDKit          3D

 19 21  0  0  0  0  0  0  0  0999 V2000
   18.7032   -0.7955  -10.7169 C   0  0  0  0  0  0  0  0  0  0  0  0
   20.2278   -0.4967   -9.8646 S   0  0  2  0  0  6  0  0  0  0  0  0
   20.5289   -1.5326   -8.8413 O   0  0  0  0  0  0  0  0  0  0  0  0
   20.2131    0.8541   -9.2051 O   0  0  0  0  0  0  0  0  0  0  0  0
   21.6052   -0.4929  -11.0197 C   0  0  2  0  0  0  0  0  0  0  0  0
   21.3468   -1.5045  -12.1195 C   0  0  0  0  0  0  0  0  0  0  0  0
   22.6605   -2.1380  -12.5261 C   0  0  0  0  0  0  0  0  0  0  0  0
   23.7766   -1.0923  -12.4888 C   0  0  0  0  0  0  0  0  0  0  0  0
   24.0896   -0.8667  -11.0222 C   0  0  1  0  0  0  0  0  0  0  0  0
   22.8349   -0.8534  -10.2063 C   0  0  0  0  0  0  0  0  0  0  0  0
   25.0084   -1.9170  -10.6254 N   0  0  0  0  0  0  0  0  0  0  0  0
   25.9735   -1.2805   -9.7836 C   0  0  0  0  0  0  0  0  0  0  0  0
   26.9474   -1.8358   -8.9409 C   0  0  0  0  0  0  0  0  0  0  0  0
   27.7459   -0.9701   -8.2426 C   0  0  0  0  0  0  0  0  0  0  0  0
   28.7014   -1.4806   -7.4156 F   0  0  0  0  0  0  0  0  0  0  0  0
   27.6055    0.3896   -8.3569 C   0  0  0  0  0  0  0  0  0  0  0  0
   26.6466    0.9264   -9.1867 C   0  0  0  0  0  0  0  0  0  0  0  0
   25.8061    0.0729   -9.9214 C   0  0  0  0  0  0  0  0  0  0  0  0
   24.7812    0.3341  -10.8101 O   0  0  0  0  0  0  0  0  0  0  0  0
  2  1  1  6
  2  3  2  0
  2  4  2  0
  5  2  1  1
  6  5  1  6
  7  6  1  1
  8  7  1  6
  8  9  1  0
 10  9  1  1
  9 11  1  1
 11 12  1  0
 12 13  2  0
 13 14  1  0
 14 15  1  0
 14 16  2  0
 16 17  1  0
 17 18  2  0
 18 19  1  0
 10  5  1  0
 18 12  1  0
  9 19  1  0
M  END
$$$$
