_rank15
     RDKit          3D

 19 21  0  0  0  0  0  0  0  0999 V2000
   28.4751   -0.6128   -8.6943 C   0  0  0  0  0  0  0  0  0  0  0  0
   26.7568   -0.2558   -8.4493 S   0  0  2  0  0  6  0  0  0  0  0  0
   26.4756    1.2025   -8.3768 O   0  0  0  0  0  0  0  0  0  0  0  0
   26.2492   -0.9156   -7.1976 O   0  0  0  0  0  0  0  0  0  0  0  0
   25.7778   -0.9058   -9.8096 C   0  0  2  0  0  0  0  0  0  0  0  0
   26.4496   -0.5644  -11.1256 C   0  0  0  0  0  0  0  0  0  0  0  0
   25.3850   -0.2867  -12.1658 C   0  0  0  0  0  0  0  0  0  0  0  0
   24.1989   -1.2313  -11.9622 C   0  0  0  0  0  0  0  0  0  0  0  0
   23.4548   -0.7126  -10.7469 C   0  0  1  0  0  0  0  0  0  0  0  0
   24.4128   -0.2526   -9.6929 C   0  0  0  0  0  0  0  0  0  0  0  0
   22.5802    0.3464  -11.2139 N   0  0  0  0  0  0  0  0  0  0  0  0
   21.3507    0.1645  -10.5065 C   0  0  0  0  0  0  0  0  0  0  0  0
   20.2417    1.0142  -10.3834 C   0  0  0  0  0  0  0  0  0  0  0  0
   19.1873    0.5710   -9.6308 C   0  0  0  0  0  0  0  0  0  0  0  0
   18.0954    1.3750   -9.4931 F   0  0  0  0  0  0  0  0  0  0  0  0
   19.2065   -0.6557   -9.0172 C   0  0  0  0  0  0  0  0  0  0  0  0
   20.2995   -1.4837   -9.1432 C   0  0  0  0  0  0  0  0  0  0  0  0
   21.4031   -1.0670   -9.9070 C   0  0  0  0  0  0  0  0  0  0  0  0
   22.6057   -1.6824  -10.1959 O   0  0  0  0  0  0  0  0  0  0  0  0
  2  1  1  6
  2  3  2  0
  2  4  2  0
  5  2  1  1
  6  5  1  6
  7  6  1  1
  8  7  1  6
  8  9  1  0
 10  9  1  1
  9 11  1  6
 11 12  1  0
 12 13  2  0
 13 14  1  0
 14 15  1  0
 14 16  2  0
 16 17  1  0
 17 18  2  0
 18 19  1  0
 10  5  1  0
 18 12  1  0
  9 19  1  0
M  END
$$$$
