_rank11
     RDKit          3D

 19 21  0  0  0  0  0  0  0  0999 V2000
   28.7228   -0.0810   -8.6087 C   0  0  0  0  0  0  0  0  0  0  0  0
   26.9799   -0.3050   -8.3800 S   0  0  2  0  0  6  0  0  0  0  0  0
   26.3276    0.8664   -7.7371 O   0  0  0  0  0  0  0  0  0  0  0  0
   26.7045   -1.5323   -7.5569 O   0  0  0  0  0  0  0  0  0  0  0  0
   26.1631   -0.5498   -9.9625 C   0  0  2  0  0  0  0  0  0  0  0  0
   26.9009    0.2232  -11.0384 C   0  0  0  0  0  0  0  0  0  0  0  0
   25.8979    0.7529  -12.0413 C   0  0  0  0  0  0  0  0  0  0  0  0
   24.7824   -0.2723  -12.2536 C   0  0  0  0  0  0  0  0  0  0  0  0
   23.9088   -0.2024  -11.0160 C   0  0  1  0  0  0  0  0  0  0  0  0
   24.7436   -0.0430   -9.7839 C   0  0  0  0  0  0  0  0  0  0  0  0
   22.9867    0.8992  -11.2180 N   0  0  0  0  0  0  0  0  0  0  0  0
   21.7271    0.4369  -10.7234 C   0  0  0  0  0  0  0  0  0  0  0  0
   20.5453    1.1423  -10.4537 C   0  0  0  0  0  0  0  0  0  0  0  0
   19.4779    0.4279   -9.9795 C   0  0  0  0  0  0  0  0  0  0  0  0
   18.3158    1.0863   -9.7083 F   0  0  0  0  0  0  0  0  0  0  0  0
   19.5529   -0.9262   -9.7732 C   0  0  0  0  0  0  0  0  0  0  0  0
   20.7172   -1.6110  -10.0406 C   0  0  0  0  0  0  0  0  0  0  0  0
   21.8365   -0.9155  -10.5287 C   0  0  0  0  0  0  0  0  0  0  0  0
   23.1043   -1.3416  -10.8744 O   0  0  0  0  0  0  0  0  0  0  0  0
  2  1  1  6
  2  3  2  0
  2  4  2  0
  5  2  1  1
  6  5  1  6
  7  6  1  1
  8  7  1  6
  8  9  1  0
 10  9  1  1
  9 11  1  6
 11 12  1  0
 12 13  2  0
 13 14  1  0
 14 15  1  0
 14 16  2  0
 16 17  1  0
 17 18  2  0
 18 19  1  0
 10  5  1  0
 18 12  1  0
  9 19  1  0
M  END
$$$$
