_rank17
     RDKit          3D

 16 16  0  0  0  0  0  0  0  0999 V2000
   23.4175    0.1395   -6.7333 C   0  0  0  0  0  0  0  0  0  0  0  0
   24.6160   -0.0185   -7.4770 O   0  0  0  0  0  0  0  0  0  0  0  0
   24.5147   -0.0520   -8.8601 C   0  0  0  0  0  0  0  0  0  0  0  0
   23.2796   -0.0069   -9.5142 C   0  0  0  0  0  0  0  0  0  0  0  0
   23.2440   -0.0438  -10.9005 C   0  0  0  0  0  0  0  0  0  0  0  0
   24.4048   -0.1242  -11.6432 C   0  0  0  0  0  0  0  0  0  0  0  0
   24.3769   -0.1648  -13.1403 C   0  0  2  0  0  0  0  0  0  0  0  0
   23.0126    0.1531  -13.5322 N   0  0  0  0  0  0  0  0  0  0  0  0
   24.7730   -1.4601  -13.6456 C   0  0  0  0  0  0  0  0  0  0  0  0
   25.1060   -2.4923  -14.0507 N   0  0  0  0  0  0  0  0  0  0  0  0
   25.6107   -0.1674  -10.9722 C   0  0  0  0  0  0  0  0  0  0  0  0
   25.6849   -0.1322   -9.5793 C   0  0  0  0  0  0  0  0  0  0  0  0
   27.1878   -0.1861   -8.7469 S   0  0  2  0  0  6  0  0  0  0  0  0
   27.8147    1.4136   -8.3151 C   0  0  0  0  0  0  0  0  0  0  0  0
   28.2125   -0.8339   -9.6467 O   0  0  0  0  0  0  0  0  0  0  0  0
   27.1435   -1.0057   -7.4890 O   0  0  0  0  0  0  0  0  0  0  0  0
  1  2  1  6
  2  3  1  0
  3  4  2  0
  4  5  1  0
  5  6  2  0
  6  7  1  0
  7  8  1  1
  7  9  1  0
  9 10  3  0
  6 11  1  0
 11 12  2  0
 13 12  1  6
 14 13  1  6
 13 15  2  0
 13 16  2  0
 12  3  1  0
M  END
$$$$
