_rank13
     RDKit          3D

 16 16  0  0  0  0  0  0  0  0999 V2000
   20.0002    1.6536   -9.5965 C   0  0  0  0  0  0  0  0  0  0  0  0
   20.4037    0.3076   -9.7966 O   0  0  0  0  0  0  0  0  0  0  0  0
   21.7622    0.0302   -9.7523 C   0  0  0  0  0  0  0  0  0  0  0  0
   22.6718    0.8799   -9.1150 C   0  0  0  0  0  0  0  0  0  0  0  0
   24.0185    0.5475   -9.1047 C   0  0  0  0  0  0  0  0  0  0  0  0
   24.4746   -0.6053   -9.7117 C   0  0  0  0  0  0  0  0  0  0  0  0
   25.9267   -0.9730   -9.7063 C   0  0  2  0  0  0  0  0  0  0  0  0
   26.0852   -1.9960   -8.6845 N   0  0  0  0  0  0  0  0  0  0  0  0
   26.7650    0.1717   -9.4285 C   0  0  0  0  0  0  0  0  0  0  0  0
   27.4488    1.0780   -9.2021 N   0  0  0  0  0  0  0  0  0  0  0  0
   23.5553   -1.4264  -10.3338 C   0  0  0  0  0  0  0  0  0  0  0  0
   22.1935   -1.1242  -10.3641 C   0  0  0  0  0  0  0  0  0  0  0  0
   21.0514   -2.1486  -11.1394 S   0  0  2  0  0  6  0  0  0  0  0  0
   20.3755   -1.4577  -12.6240 C   0  0  0  0  0  0  0  0  0  0  0  0
   19.8968   -2.3820  -10.1952 O   0  0  0  0  0  0  0  0  0  0  0  0
   21.6029   -3.5024  -11.4844 O   0  0  0  0  0  0  0  0  0  0  0  0
  1  2  1  6
  2  3  1  0
  3  4  2  0
  4  5  1  0
  5  6  2  0
  6  7  1  0
  7  8  1  1
  7  9  1  0
  9 10  3  0
  6 11  1  0
 11 12  2  0
 13 12  1  1
 14 13  1  6
 13 15  2  0
 13 16  2  0
 12  3  1  0
M  END
$$$$
