_rank16
     RDKit          3D

 16 16  0  0  0  0  0  0  0  0999 V2000
   33.0989  -10.9058  -14.8545 C   0  0  0  0  0  0  0  0  0  0  0  0
   32.9452  -12.2251  -14.3540 O   0  0  0  0  0  0  0  0  0  0  0  0
   32.7737  -12.3778  -12.9860 C   0  0  0  0  0  0  0  0  0  0  0  0
   33.8581  -12.4378  -12.1050 C   0  0  0  0  0  0  0  0  0  0  0  0
   33.6214  -12.5916  -10.7469 C   0  0  0  0  0  0  0  0  0  0  0  0
   32.3364  -12.6860  -10.2516 C   0  0  0  0  0  0  0  0  0  0  0  0
   32.0705  -12.8523   -8.7869 C   0  0  2  0  0  0  0  0  0  0  0  0
   33.3344  -12.6033   -8.1115 N   0  0  0  0  0  0  0  0  0  0  0  0
   31.5718  -14.1748   -8.4828 C   0  0  0  0  0  0  0  0  0  0  0  0
   31.1850  -15.2359   -8.2285 N   0  0  0  0  0  0  0  0  0  0  0  0
   31.2840  -12.6238  -11.1432 C   0  0  0  0  0  0  0  0  0  0  0  0
   31.4840  -12.4697  -12.5155 C   0  0  0  0  0  0  0  0  0  0  0  0
   30.1717  -12.3926  -13.6230 S   0  0  2  0  0  6  0  0  0  0  0  0
   28.9995  -11.1199  -13.2427 C   0  0  0  0  0  0  0  0  0  0  0  0
   29.4279  -13.7056  -13.5787 O   0  0  0  0  0  0  0  0  0  0  0  0
   30.6047  -12.1936  -15.0474 O   0  0  0  0  0  0  0  0  0  0  0  0
  1  2  1  6
  2  3  1  0
  3  4  2  0
  4  5  1  0
  5  6  2  0
  6  7  1  0
  7  8  1  1
  7  9  1  0
  9 10  3  0
  6 11  1  0
 11 12  2  0
 13 12  1  1
 14 13  1  6
 13 15  2  0
 13 16  2  0
 12  3  1  0
M  END
$$$$
