_rank2
     RDKit          3D

 16 16  0  0  0  0  0  0  0  0999 V2000
   27.3743    0.2426   -8.1282 C   0  0  0  0  0  0  0  0  0  0  0  0
   26.9429    0.4134   -9.4696 O   0  0  0  0  0  0  0  0  0  0  0  0
   25.6922   -0.0803   -9.8105 C   0  0  0  0  0  0  0  0  0  0  0  0
   24.8592   -0.6998   -8.8736 C   0  0  0  0  0  0  0  0  0  0  0  0
   23.6190   -1.1732   -9.2762 C   0  0  0  0  0  0  0  0  0  0  0  0
   23.1944   -1.0431  -10.5832 C   0  0  0  0  0  0  0  0  0  0  0  0
   21.8572   -1.5510  -11.0279 C   0  0  2  0  0  0  0  0  0  0  0  0
   21.5317   -0.8300  -12.2485 N   0  0  0  0  0  0  0  0  0  0  0  0
   20.8451   -1.3425  -10.0168 C   0  0  0  0  0  0  0  0  0  0  0  0
   20.0433   -1.1626   -9.2014 N   0  0  0  0  0  0  0  0  0  0  0  0
   24.0364   -0.4274  -11.4878 C   0  0  0  0  0  0  0  0  0  0  0  0
   25.2904    0.0607  -11.1188 C   0  0  0  0  0  0  0  0  0  0  0  0
   26.3364    0.8268  -12.2474 S   0  0  2  0  0  6  0  0  0  0  0  0
   27.7062   -0.1829  -12.7400 C   0  0  0  0  0  0  0  0  0  0  0  0
   26.9101    2.0670  -11.6056 O   0  0  0  0  0  0  0  0  0  0  0  0
   25.6370    1.2764  -13.4983 O   0  0  0  0  0  0  0  0  0  0  0  0
  1  2  1  6
  2  3  1  0
  3  4  2  0
  4  5  1  0
  5  6  2  0
  6  7  1  0
  7  8  1  6
  7  9  1  0
  9 10  3  0
  6 11  1  0
 11 12  2  0
 13 12  1  1
 14 13  1  6
 13 15  2  0
 13 16  2  0
 12  3  1  0
M  END
$$$$
