_rank10
     RDKit          3D

 16 16  0  0  0  0  0  0  0  0999 V2000
   28.2321   -1.2836  -11.6676 C   0  0  0  0  0  0  0  0  0  0  0  0
   27.4691   -0.1254  -11.3662 O   0  0  0  0  0  0  0  0  0  0  0  0
   26.1314   -0.3025  -11.0444 C   0  0  0  0  0  0  0  0  0  0  0  0
   25.1592   -0.5398  -12.0211 C   0  0  0  0  0  0  0  0  0  0  0  0
   23.8373   -0.7088  -11.6359 C   0  0  0  0  0  0  0  0  0  0  0  0
   23.4665   -0.6466  -10.3077 C   0  0  0  0  0  0  0  0  0  0  0  0
   22.0419   -0.8276   -9.8817 C   0  0  2  0  0  0  0  0  0  0  0  0
   21.8419   -2.2596   -9.7228 N   0  0  0  0  0  0  0  0  0  0  0  0
   21.1217   -0.2801  -10.8531 C   0  0  0  0  0  0  0  0  0  0  0  0
   20.3725    0.1497  -11.6239 N   0  0  0  0  0  0  0  0  0  0  0  0
   24.4464   -0.4111   -9.3639 C   0  0  0  0  0  0  0  0  0  0  0  0
   25.7856   -0.2363   -9.7144 C   0  0  0  0  0  0  0  0  0  0  0  0
   27.0031    0.0568   -8.5370 S   0  0  2  0  0  6  0  0  0  0  0  0
   27.9840   -1.3704   -8.1637 C   0  0  0  0  0  0  0  0  0  0  0  0
   26.3357    0.4826   -7.2515 O   0  0  0  0  0  0  0  0  0  0  0  0
   27.9457    1.1628   -8.9168 O   0  0  0  0  0  0  0  0  0  0  0  0
  1  2  1  6
  2  3  1  0
  3  4  2  0
  4  5  1  0
  5  6  2  0
  6  7  1  0
  7  8  1  6
  7  9  1  0
  9 10  3  0
  6 11  1  0
 11 12  2  0
 13 12  1  6
 14 13  1  6
 13 15  2  0
 13 16  2  0
 12  3  1  0
M  END
$$$$
