_rank12
     RDKit          3D

 16 16  0  0  0  0  0  0  0  0999 V2000
   21.2924    0.0830  -10.2575 C   0  0  0  0  0  0  0  0  0  0  0  0
   22.3414   -0.4677  -11.0391 O   0  0  0  0  0  0  0  0  0  0  0  0
   23.5910   -0.5837  -10.4480 C   0  0  0  0  0  0  0  0  0  0  0  0
   23.7475   -0.9903   -9.1192 C   0  0  0  0  0  0  0  0  0  0  0  0
   25.0241   -1.0870   -8.5850 C   0  0  0  0  0  0  0  0  0  0  0  0
   26.1397   -0.7894   -9.3414 C   0  0  0  0  0  0  0  0  0  0  0  0
   27.5222   -0.8906   -8.7737 C   0  0  2  0  0  0  0  0  0  0  0  0
   27.5487   -2.1077   -7.9776 N   0  0  0  0  0  0  0  0  0  0  0  0
   27.8530    0.2633   -7.9680 C   0  0  0  0  0  0  0  0  0  0  0  0
   28.1259    1.1775   -7.3121 N   0  0  0  0  0  0  0  0  0  0  0  0
   25.9568   -0.3904  -10.6505 C   0  0  0  0  0  0  0  0  0  0  0  0
   24.6882   -0.2818  -11.2213 C   0  0  0  0  0  0  0  0  0  0  0  0
   24.4638    0.2151  -12.8514 S   0  0  2  0  0  6  0  0  0  0  0  0
   23.8800   -1.0790  -13.9111 C   0  0  0  0  0  0  0  0  0  0  0  0
   25.7935    0.6709  -13.4021 O   0  0  0  0  0  0  0  0  0  0  0  0
   23.5201    1.3746  -12.9966 O   0  0  0  0  0  0  0  0  0  0  0  0
  1  2  1  6
  2  3  1  0
  3  4  2  0
  4  5  1  0
  5  6  2  0
  6  7  1  0
  7  8  1  1
  7  9  1  0
  9 10  3  0
  6 11  1  0
 11 12  2  0
 13 12  1  1
 14 13  1  6
 13 15  2  0
 13 16  2  0
 12  3  1  0
M  END
$$$$
