_rank20
     RDKit          3D

 16 16  0  0  0  0  0  0  0  0999 V2000
   27.1271    0.7907   -7.8509 C   0  0  0  0  0  0  0  0  0  0  0  0
   25.8724    0.6609   -8.5016 O   0  0  0  0  0  0  0  0  0  0  0  0
   25.7032   -0.4129   -9.3635 C   0  0  0  0  0  0  0  0  0  0  0  0
   26.7369   -1.3142   -9.6366 C   0  0  0  0  0  0  0  0  0  0  0  0
   26.5054   -2.3685  -10.5079 C   0  0  0  0  0  0  0  0  0  0  0  0
   25.2747   -2.5424  -11.1083 C   0  0  0  0  0  0  0  0  0  0  0  0
   25.0149   -3.6774  -12.0506 C   0  0  2  0  0  0  0  0  0  0  0  0
   23.9467   -4.4655  -11.4560 N   0  0  0  0  0  0  0  0  0  0  0  0
   26.1992   -4.4808  -12.2562 C   0  0  0  0  0  0  0  0  0  0  0  0
   27.1569   -5.1106  -12.4188 N   0  0  0  0  0  0  0  0  0  0  0  0
   24.2716   -1.6380  -10.8212 C   0  0  0  0  0  0  0  0  0  0  0  0
   24.4681   -0.5659   -9.9501 C   0  0  0  0  0  0  0  0  0  0  0  0
   23.2173    0.5582   -9.5947 S   0  0  2  0  0  6  0  0  0  0  0  0
   23.6350    2.2318   -9.9985 C   0  0  0  0  0  0  0  0  0  0  0  0
   22.9420    0.5174   -8.1108 O   0  0  0  0  0  0  0  0  0  0  0  0
   21.9187    0.2415  -10.2799 O   0  0  0  0  0  0  0  0  0  0  0  0
  1  2  1  6
  2  3  1  0
  3  4  2  0
  4  5  1  0
  5  6  2  0
  6  7  1  0
  7  8  1  1
  7  9  1  0
  9 10  3  0
  6 11  1  0
 11 12  2  0
 13 12  1  1
 14 13  1  6
 13 15  2  0
 13 16  2  0
 12  3  1  0
M  END
$$$$
