_rank7
     RDKit          3D

 16 16  0  0  0  0  0  0  0  0999 V2000
   27.4887   -0.7102  -12.6189 C   0  0  0  0  0  0  0  0  0  0  0  0
   27.1718   -1.1532  -11.3082 O   0  0  0  0  0  0  0  0  0  0  0  0
   25.8478   -1.0672  -10.9030 C   0  0  0  0  0  0  0  0  0  0  0  0
   24.8007   -1.5741  -11.6790 C   0  0  0  0  0  0  0  0  0  0  0  0
   23.4971   -1.4574  -11.2191 C   0  0  0  0  0  0  0  0  0  0  0  0
   23.2171   -0.8508  -10.0112 C   0  0  0  0  0  0  0  0  0  0  0  0
   21.8130   -0.7199   -9.5060 C   0  0  2  0  0  0  0  0  0  0  0  0
   21.3233   -2.0747   -9.3048 N   0  0  0  0  0  0  0  0  0  0  0  0
   20.9762    0.0007  -10.4391 C   0  0  0  0  0  0  0  0  0  0  0  0
   20.3027    0.5889  -11.1744 N   0  0  0  0  0  0  0  0  0  0  0  0
   24.2696   -0.3590   -9.2650 C   0  0  0  0  0  0  0  0  0  0  0  0
   25.5930   -0.4585   -9.6957 C   0  0  0  0  0  0  0  0  0  0  0  0
   26.9012    0.1548   -8.7644 S   0  0  2  0  0  6  0  0  0  0  0  0
   27.5911   -1.0334   -7.6461 C   0  0  0  0  0  0  0  0  0  0  0  0
   26.3976    1.3072   -7.9291 O   0  0  0  0  0  0  0  0  0  0  0  0
   28.0276    0.6920   -9.6002 O   0  0  0  0  0  0  0  0  0  0  0  0
  1  2  1  6
  2  3  1  0
  3  4  2  0
  4  5  1  0
  5  6  2  0
  6  7  1  0
  7  8  1  6
  7  9  1  0
  9 10  3  0
  6 11  1  0
 11 12  2  0
 13 12  1  6
 14 13  1  6
 13 15  2  0
 13 16  2  0
 12  3  1  0
M  END
$$$$
