_rank18
     RDKit          3D

 16 16  0  0  0  0  0  0  0  0999 V2000
   23.5289    3.0192   -7.8920 C   0  0  0  0  0  0  0  0  0  0  0  0
   24.3696    1.9040   -8.1451 O   0  0  0  0  0  0  0  0  0  0  0  0
   23.9377    0.9716   -9.0770 C   0  0  0  0  0  0  0  0  0  0  0  0
   22.6161    0.9363   -9.5326 C   0  0  0  0  0  0  0  0  0  0  0  0
   22.2453   -0.0208  -10.4658 C   0  0  0  0  0  0  0  0  0  0  0  0
   23.1570   -0.9366  -10.9510 C   0  0  0  0  0  0  0  0  0  0  0  0
   22.7663   -1.9739  -11.9586 C   0  0  2  0  0  0  0  0  0  0  0  0
   22.5168   -1.2618  -13.2022 N   0  0  0  0  0  0  0  0  0  0  0  0
   21.5951   -2.7101  -11.5387 C   0  0  0  0  0  0  0  0  0  0  0  0
   20.6493   -3.2852  -11.1997 N   0  0  0  0  0  0  0  0  0  0  0  0
   24.4552   -0.8795  -10.4845 C   0  0  0  0  0  0  0  0  0  0  0  0
   24.8640    0.0689   -9.5463 C   0  0  0  0  0  0  0  0  0  0  0  0
   26.4810    0.1374   -8.9674 S   0  0  2  0  0  6  0  0  0  0  0  0
   27.5906   -0.9323   -9.8409 C   0  0  0  0  0  0  0  0  0  0  0  0
   26.4928   -0.2990   -7.5222 O   0  0  0  0  0  0  0  0  0  0  0  0
   27.0686    1.5193   -9.0022 O   0  0  0  0  0  0  0  0  0  0  0  0
  1  2  1  6
  2  3  1  0
  3  4  2  0
  4  5  1  0
  5  6  2  0
  6  7  1  0
  7  8  1  6
  7  9  1  0
  9 10  3  0
  6 11  1  0
 11 12  2  0
 13 12  1  6
 14 13  1  6
 13 15  2  0
 13 16  2  0
 12  3  1  0
M  END
$$$$
