_rank10
     RDKit          3D

 19 20  0  0  0  0  0  0  0  0999 V2000
   26.0800   -0.1541  -13.6294 C   0  0  0  0  0  0  0  0  0  0  0  0
   26.6354    0.8172  -12.2746 S   0  0  1  0  0  6  0  0  0  0  0  0
   28.1069    1.1589  -12.4367 O   0  0  0  0  0  0  0  0  0  0  0  0
   25.8680    2.1184  -12.2184 O   0  0  0  0  0  0  0  0  0  0  0  0
   26.4211    0.0021  -10.7476 C   0  0  0  0  0  0  0  0  0  0  0  0
   27.4329   -0.2096   -9.8525 C   0  0  0  0  0  0  0  0  0  0  0  0
   27.2361   -0.8622   -8.6416 C   0  0  0  0  0  0  0  0  0  0  0  0
   28.3049   -1.0678   -7.7320 N   0  0  0  0  0  0  0  0  0  0  0  0
   25.9524   -1.2985   -8.3702 C   0  0  0  0  0  0  0  0  0  0  0  0
   24.8953   -1.1116   -9.2371 C   0  0  0  0  0  0  0  0  0  0  0  0
   25.1606   -0.4542  -10.4254 C   0  0  0  0  0  0  0  0  0  0  0  0
   24.1153   -0.2541  -11.3133 O   0  0  0  0  0  0  0  0  0  0  0  0
   22.7977   -0.4520  -10.9432 C   0  0  0  0  0  0  0  0  0  0  0  0
   22.0852    0.5098  -10.2804 C   0  0  0  0  0  0  0  0  0  0  0  0
   20.7903    0.2860   -9.9294 C   0  0  0  0  0  0  0  0  0  0  0  0
   20.1926   -0.9138  -10.2422 C   0  0  0  0  0  0  0  0  0  0  0  0
   20.8915   -1.8828  -10.9035 C   0  0  0  0  0  0  0  0  0  0  0  0
   20.2724   -3.0481  -11.1939 F   0  0  0  0  0  0  0  0  0  0  0  0
   22.1947   -1.6652  -11.2599 C   0  0  0  0  0  0  0  0  0  0  0  0
  1  2  1  1
  2  3  2  0
  2  4  2  0
  2  5  1  1
  5  6  2  0
  6  7  1  0
  7  8  1  0
  7  9  2  0
  9 10  1  0
 10 11  2  0
 11 12  1  0
 12 13  1  0
 13 14  2  0
 14 15  1  0
 15 16  2  0
 16 17  1  0
 17 18  1  0
 17 19  2  0
 11  5  1  0
 19 13  1  0
M  END
$$$$
