_rank12
     RDKit          3D

 19 20  0  0  0  0  0  0  0  0999 V2000
   26.4196   -0.1452  -13.6570 C   0  0  0  0  0  0  0  0  0  0  0  0
   26.4558    0.9103  -12.2528 S   0  0  1  0  0  6  0  0  0  0  0  0
   27.7382    1.7247  -12.2360 O   0  0  0  0  0  0  0  0  0  0  0  0
   25.2986    1.8817  -12.3025 O   0  0  0  0  0  0  0  0  0  0  0  0
   26.3449    0.0208  -10.7566 C   0  0  0  0  0  0  0  0  0  0  0  0
   27.3826   -0.1150   -9.8766 C   0  0  0  0  0  0  0  0  0  0  0  0
   27.2688   -0.8295   -8.6902 C   0  0  0  0  0  0  0  0  0  0  0  0
   28.3626   -0.9537   -7.7958 N   0  0  0  0  0  0  0  0  0  0  0  0
   26.0415   -1.4099   -8.4276 C   0  0  0  0  0  0  0  0  0  0  0  0
   24.9616   -1.3046   -9.2801 C   0  0  0  0  0  0  0  0  0  0  0  0
   25.1434   -0.5789  -10.4441 C   0  0  0  0  0  0  0  0  0  0  0  0
   24.0737   -0.4584  -11.3172 O   0  0  0  0  0  0  0  0  0  0  0  0
   22.7647   -0.5633  -10.8837 C   0  0  0  0  0  0  0  0  0  0  0  0
   22.1922    0.3919  -10.0889 C   0  0  0  0  0  0  0  0  0  0  0  0
   20.9021    0.2610   -9.6783 C   0  0  0  0  0  0  0  0  0  0  0  0
   20.1679   -0.8375  -10.0637 C   0  0  0  0  0  0  0  0  0  0  0  0
   20.7263   -1.7988  -10.8569 C   0  0  0  0  0  0  0  0  0  0  0  0
   19.9755   -2.8632  -11.2156 F   0  0  0  0  0  0  0  0  0  0  0  0
   22.0236   -1.6742  -11.2741 C   0  0  0  0  0  0  0  0  0  0  0  0
  1  2  1  1
  2  3  2  0
  2  4  2  0
  2  5  1  1
  5  6  2  0
  6  7  1  0
  7  8  1  0
  7  9  2  0
  9 10  1  0
 10 11  2  0
 11 12  1  0
 12 13  1  0
 13 14  2  0
 14 15  1  0
 15 16  2  0
 16 17  1  0
 17 18  1  0
 17 19  2  0
 11  5  1  0
 19 13  1  0
M  END
$$$$
