_rank11
     RDKit          3D

 19 20  0  0  0  0  0  0  0  0999 V2000
   27.4400   -0.1318  -12.6391 C   0  0  0  0  0  0  0  0  0  0  0  0
   25.9375    0.5465  -12.0310 S   0  0  1  0  0  6  0  0  0  0  0  0
   25.9799    2.0641  -12.0904 O   0  0  0  0  0  0  0  0  0  0  0  0
   24.7771    0.0884  -12.8846 O   0  0  0  0  0  0  0  0  0  0  0  0
   25.6154    0.0655  -10.3857 C   0  0  0  0  0  0  0  0  0  0  0  0
   26.5006    0.2384   -9.3580 C   0  0  0  0  0  0  0  0  0  0  0  0
   26.2199   -0.1538   -8.0548 C   0  0  0  0  0  0  0  0  0  0  0  0
   27.1579    0.0382   -7.0083 N   0  0  0  0  0  0  0  0  0  0  0  0
   24.9865   -0.7375   -7.8317 C   0  0  0  0  0  0  0  0  0  0  0  0
   24.0562   -0.9359   -8.8313 C   0  0  0  0  0  0  0  0  0  0  0  0
   24.3999   -0.5221  -10.1062 C   0  0  0  0  0  0  0  0  0  0  0  0
   23.4824   -0.7104  -11.1278 O   0  0  0  0  0  0  0  0  0  0  0  0
   22.1205   -0.6082  -10.9114 C   0  0  0  0  0  0  0  0  0  0  0  0
   21.3058   -1.7074  -10.9278 C   0  0  0  0  0  0  0  0  0  0  0  0
   19.9695   -1.5754  -10.7114 C   0  0  0  0  0  0  0  0  0  0  0  0
   19.4329   -0.3302  -10.4747 C   0  0  0  0  0  0  0  0  0  0  0  0
   20.2339    0.7757  -10.4554 C   0  0  0  0  0  0  0  0  0  0  0  0
   19.6724    1.9817  -10.2199 F   0  0  0  0  0  0  0  0  0  0  0  0
   21.5793    0.6509  -10.6722 C   0  0  0  0  0  0  0  0  0  0  0  0
  1  2  1  1
  2  3  2  0
  2  4  2  0
  2  5  1  1
  5  6  2  0
  6  7  1  0
  7  8  1  0
  7  9  2  0
  9 10  1  0
 10 11  2  0
 11 12  1  0
 12 13  1  0
 13 14  2  0
 14 15  1  0
 15 16  2  0
 16 17  1  0
 17 18  1  0
 17 19  2  0
 11  5  1  0
 19 13  1  0
M  END
$$$$
