_rank8
     RDKit          3D

 19 20  0  0  0  0  0  0  0  0999 V2000
   25.8218   -0.7198  -13.1938 C   0  0  0  0  0  0  0  0  0  0  0  0
   26.4037    0.5620  -12.1423 S   0  0  1  0  0  6  0  0  0  0  0  0
   27.9028    0.7439  -12.3096 O   0  0  0  0  0  0  0  0  0  0  0  0
   25.7415    1.8720  -12.5037 O   0  0  0  0  0  0  0  0  0  0  0  0
   26.0694    0.2383  -10.4614 C   0  0  0  0  0  0  0  0  0  0  0  0
   26.9867    0.4020   -9.4606 C   0  0  0  0  0  0  0  0  0  0  0  0
   26.6953    0.1370   -8.1280 C   0  0  0  0  0  0  0  0  0  0  0  0
   27.6672    0.3160   -7.1105 N   0  0  0  0  0  0  0  0  0  0  0  0
   25.4168   -0.3076   -7.8461 C   0  0  0  0  0  0  0  0  0  0  0  0
   24.4527   -0.4902   -8.8163 C   0  0  0  0  0  0  0  0  0  0  0  0
   24.8094   -0.2077  -10.1231 C   0  0  0  0  0  0  0  0  0  0  0  0
   23.8586   -0.3831  -11.1163 O   0  0  0  0  0  0  0  0  0  0  0  0
   22.5250   -0.5948  -10.8184 C   0  0  0  0  0  0  0  0  0  0  0  0
   21.9931   -1.8540  -10.7592 C   0  0  0  0  0  0  0  0  0  0  0  0
   20.6772   -2.0307  -10.4636 C   0  0  0  0  0  0  0  0  0  0  0  0
   19.8758   -0.9379  -10.2228 C   0  0  0  0  0  0  0  0  0  0  0  0
   20.3931    0.3247  -10.2785 C   0  0  0  0  0  0  0  0  0  0  0  0
   19.5766    1.3736  -10.0364 F   0  0  0  0  0  0  0  0  0  0  0  0
   21.7159    0.5106  -10.5752 C   0  0  0  0  0  0  0  0  0  0  0  0
  1  2  1  1
  2  3  2  0
  2  4  2  0
  2  5  1  1
  5  6  2  0
  6  7  1  0
  7  8  1  0
  7  9  2  0
  9 10  1  0
 10 11  2  0
 11 12  1  0
 12 13  1  0
 13 14  2  0
 14 15  1  0
 15 16  2  0
 16 17  1  0
 17 18  1  0
 17 19  2  0
 11  5  1  0
 19 13  1  0
M  END
$$$$
