_rank19
     RDKit          3D

 19 20  0  0  0  0  0  0  0  0999 V2000
   26.7658    1.6999  -10.1850 C   0  0  0  0  0  0  0  0  0  0  0  0
   26.8046    0.5504   -8.8568 S   0  0  1  0  0  6  0  0  0  0  0  0
   28.1347    0.6300   -8.1269 O   0  0  0  0  0  0  0  0  0  0  0  0
   25.7160    0.8722   -7.8585 O   0  0  0  0  0  0  0  0  0  0  0  0
   26.5673   -1.0905   -9.3982 C   0  0  0  0  0  0  0  0  0  0  0  0
   27.4264   -2.1151   -9.1121 C   0  0  0  0  0  0  0  0  0  0  0  0
   27.2148   -3.4149   -9.5556 C   0  0  0  0  0  0  0  0  0  0  0  0
   28.1235   -4.4583   -9.2434 N   0  0  0  0  0  0  0  0  0  0  0  0
   26.0794   -3.6379  -10.3127 C   0  0  0  0  0  0  0  0  0  0  0  0
   25.1795   -2.6414  -10.6308 C   0  0  0  0  0  0  0  0  0  0  0  0
   25.4507   -1.3698  -10.1572 C   0  0  0  0  0  0  0  0  0  0  0  0
   24.5619   -0.3512  -10.4631 O   0  0  0  0  0  0  0  0  0  0  0  0
   23.2051   -0.4728  -10.2250 C   0  0  0  0  0  0  0  0  0  0  0  0
   22.7235   -1.1797   -9.1571 C   0  0  0  0  0  0  0  0  0  0  0  0
   21.3833   -1.2816   -8.9488 C   0  0  0  0  0  0  0  0  0  0  0  0
   20.5062   -0.6709   -9.8160 C   0  0  0  0  0  0  0  0  0  0  0  0
   20.9726    0.0380  -10.8860 C   0  0  0  0  0  0  0  0  0  0  0  0
   20.0823    0.6241  -11.7162 F   0  0  0  0  0  0  0  0  0  0  0  0
   22.3196    0.1450  -11.1023 C   0  0  0  0  0  0  0  0  0  0  0  0
  1  2  1  1
  2  3  2  0
  2  4  2  0
  2  5  1  6
  5  6  2  0
  6  7  1  0
  7  8  1  0
  7  9  2  0
  9 10  1  0
 10 11  2  0
 11 12  1  0
 12 13  1  0
 13 14  2  0
 14 15  1  0
 15 16  2  0
 16 17  1  0
 17 18  1  0
 17 19  2  0
 11  5  1  0
 19 13  1  0
M  END
$$$$
