_rank5
     RDKit          3D

 19 20  0  0  0  0  0  0  0  0999 V2000
   27.4445    0.9601  -12.6383 C   0  0  0  0  0  0  0  0  0  0  0  0
   25.7464    0.5499  -12.4498 S   0  0  1  0  0  6  0  0  0  0  0  0
   24.8698    1.7095  -12.8916 O   0  0  0  0  0  0  0  0  0  0  0  0
   25.3998   -0.6402  -13.3150 O   0  0  0  0  0  0  0  0  0  0  0  0
   25.3445    0.1488  -10.8006 C   0  0  0  0  0  0  0  0  0  0  0  0
   26.2673    0.0589   -9.7956 C   0  0  0  0  0  0  0  0  0  0  0  0
   25.9213   -0.2626   -8.4888 C   0  0  0  0  0  0  0  0  0  0  0  0
   26.9004   -0.3487   -7.4661 N   0  0  0  0  0  0  0  0  0  0  0  0
   24.5812   -0.4931   -8.2376 C   0  0  0  0  0  0  0  0  0  0  0  0
   23.6088   -0.4159   -9.2135 C   0  0  0  0  0  0  0  0  0  0  0  0
   24.0220   -0.0912  -10.4936 C   0  0  0  0  0  0  0  0  0  0  0  0
   23.0641   -0.0074  -11.4919 O   0  0  0  0  0  0  0  0  0  0  0  0
   21.7186   -0.1853  -11.2267 C   0  0  0  0  0  0  0  0  0  0  0  0
   20.9332    0.8405  -10.7763 C   0  0  0  0  0  0  0  0  0  0  0  0
   19.6125    0.6349  -10.5242 C   0  0  0  0  0  0  0  0  0  0  0  0
   19.0623   -0.6110  -10.7228 C   0  0  0  0  0  0  0  0  0  0  0  0
   19.8342   -1.6441  -11.1720 C   0  0  0  0  0  0  0  0  0  0  0  0
   19.2601   -2.8533  -11.3554 F   0  0  0  0  0  0  0  0  0  0  0  0
   21.1637   -1.4451  -11.4279 C   0  0  0  0  0  0  0  0  0  0  0  0
  1  2  1  1
  2  3  2  0
  2  4  2  0
  2  5  1  1
  5  6  2  0
  6  7  1  0
  7  8  1  0
  7  9  2  0
  9 10  1  0
 10 11  2  0
 11 12  1  0
 12 13  1  0
 13 14  2  0
 14 15  1  0
 15 16  2  0
 16 17  1  0
 17 18  1  0
 17 19  2  0
 11  5  1  0
 19 13  1  0
M  END
$$$$
