_rank13
     RDKit          3D

 19 20  0  0  0  0  0  0  0  0999 V2000
   25.4650    2.3849  -12.3653 C   0  0  0  0  0  0  0  0  0  0  0  0
   26.0647    0.7353  -12.2866 S   0  0  1  0  0  6  0  0  0  0  0  0
   25.4700   -0.0980  -13.4092 O   0  0  0  0  0  0  0  0  0  0  0  0
   27.5671    0.7197  -12.4529 O   0  0  0  0  0  0  0  0  0  0  0  0
   25.6857   -0.0319  -10.7668 C   0  0  0  0  0  0  0  0  0  0  0  0
   26.6121   -0.2857   -9.7937 C   0  0  0  0  0  0  0  0  0  0  0  0
   26.2845   -0.8988   -8.5904 C   0  0  0  0  0  0  0  0  0  0  0  0
   27.2670   -1.1496   -7.5986 N   0  0  0  0  0  0  0  0  0  0  0  0
   24.9592   -1.2497   -8.4104 C   0  0  0  0  0  0  0  0  0  0  0  0
   23.9839   -1.0172   -9.3584 C   0  0  0  0  0  0  0  0  0  0  0  0
   24.3784   -0.4032  -10.5340 C   0  0  0  0  0  0  0  0  0  0  0  0
   23.4173   -0.1587  -11.5023 O   0  0  0  0  0  0  0  0  0  0  0  0
   22.0662   -0.1791  -11.2086 C   0  0  0  0  0  0  0  0  0  0  0  0
   21.3654    0.9713  -10.9689 C   0  0  0  0  0  0  0  0  0  0  0  0
   20.0368    0.9194  -10.6825 C   0  0  0  0  0  0  0  0  0  0  0  0
   19.3929   -0.2961  -10.6332 C   0  0  0  0  0  0  0  0  0  0  0  0
   20.0796   -1.4525  -10.8703 C   0  0  0  0  0  0  0  0  0  0  0  0
   19.4149   -2.6273  -10.8134 F   0  0  0  0  0  0  0  0  0  0  0  0
   21.4165   -1.4084  -11.1591 C   0  0  0  0  0  0  0  0  0  0  0  0
  1  2  1  1
  2  3  2  0
  2  4  2  0
  2  5  1  1
  5  6  2  0
  6  7  1  0
  7  8  1  0
  7  9  2  0
  9 10  1  0
 10 11  2  0
 11 12  1  0
 12 13  1  0
 13 14  2  0
 14 15  1  0
 15 16  2  0
 16 17  1  0
 17 18  1  0
 17 19  2  0
 11  5  1  0
 19 13  1  0
M  END
$$$$
