_rank9
     RDKit          3D

 19 20  0  0  0  0  0  0  0  0999 V2000
   27.6877   -0.6499  -13.0212 C   0  0  0  0  0  0  0  0  0  0  0  0
   26.4348    0.3796  -12.3447 S   0  0  1  0  0  6  0  0  0  0  0  0
   26.8213    1.8426  -12.4811 O   0  0  0  0  0  0  0  0  0  0  0  0
   25.1366    0.1786  -13.0926 O   0  0  0  0  0  0  0  0  0  0  0  0
   26.1408    0.0393  -10.6595 C   0  0  0  0  0  0  0  0  0  0  0  0
   27.1314   -0.2303   -9.7563 C   0  0  0  0  0  0  0  0  0  0  0  0
   26.8708   -0.4985   -8.4180 C   0  0  0  0  0  0  0  0  0  0  0  0
   27.9190   -0.7750   -7.5032 N   0  0  0  0  0  0  0  0  0  0  0  0
   25.5450   -0.4822   -8.0258 C   0  0  0  0  0  0  0  0  0  0  0  0
   24.5066   -0.2163   -8.8947 C   0  0  0  0  0  0  0  0  0  0  0  0
   24.8362    0.0425  -10.2135 C   0  0  0  0  0  0  0  0  0  0  0  0
   23.8109    0.3125  -11.1062 O   0  0  0  0  0  0  0  0  0  0  0  0
   22.5442   -0.2172  -10.9421 C   0  0  0  0  0  0  0  0  0  0  0  0
   22.2983   -1.5539  -11.1000 C   0  0  0  0  0  0  0  0  0  0  0  0
   21.0414   -2.0457  -10.9320 C   0  0  0  0  0  0  0  0  0  0  0  0
   20.0108   -1.1954  -10.6015 C   0  0  0  0  0  0  0  0  0  0  0  0
   20.2415    0.1410  -10.4407 C   0  0  0  0  0  0  0  0  0  0  0  0
   19.2058    0.9456  -10.1163 F   0  0  0  0  0  0  0  0  0  0  0  0
   21.5033    0.6433  -10.6081 C   0  0  0  0  0  0  0  0  0  0  0  0
  1  2  1  1
  2  3  2  0
  2  4  2  0
  2  5  1  1
  5  6  2  0
  6  7  1  0
  7  8  1  0
  7  9  2  0
  9 10  1  0
 10 11  2  0
 11 12  1  0
 12 13  1  0
 13 14  2  0
 14 15  1  0
 15 16  2  0
 16 17  1  0
 17 18  1  0
 17 19  2  0
 11  5  1  0
 19 13  1  0
M  END
$$$$
