_rank4
     RDKit          3D

 18 19  0  0  0  0  0  0  0  0999 V2000
   27.7446    1.6527  -11.7172 C   0  0  0  0  0  0  0  0  0  0  0  0
   26.9395    0.8297  -10.7418 C   0  0  1  0  0  0  0  0  0  0  0  0
   26.3519   -0.3986  -11.3721 C   0  0  0  0  0  0  0  0  0  0  0  0
   25.1694   -0.8281  -10.4455 C   0  0  2  0  0  0  0  0  0  0  0  0
   24.0514   -0.0858  -10.8818 O   0  0  0  0  0  0  0  0  0  0  0  0
   22.7758   -0.5308  -10.6852 C   0  0  0  0  0  0  0  0  0  0  0  0
   22.4682   -1.8380  -10.5114 C   0  0  0  0  0  0  0  0  0  0  0  0
   21.1506   -2.2483  -10.3264 C   0  0  0  0  0  0  0  0  0  0  0  0
   20.8721   -3.5523  -10.1551 F   0  0  0  0  0  0  0  0  0  0  0  0
   20.1447   -1.3254  -10.3148 C   0  0  0  0  0  0  0  0  0  0  0  0
   20.4410    0.0237  -10.4910 C   0  0  0  0  0  0  0  0  0  0  0  0
   19.3669    0.9861  -10.4734 C   0  0  0  0  0  0  0  0  0  0  0  0
   18.4853    1.7692  -10.4462 N   0  0  0  0  0  0  0  0  0  0  0  0
   21.7184    0.3999  -10.6675 C   0  0  0  0  0  0  0  0  0  0  0  0
   25.5019   -0.3994   -9.0624 C   0  0  0  0  0  0  0  0  0  0  0  0
   26.9853   -0.3583   -8.7898 C   0  0  1  0  0  0  0  0  0  0  0  0
   27.5504   -1.7350   -8.7800 C   0  0  0  0  0  0  0  0  0  0  0  0
   27.6990    0.4631   -9.6592 O   0  0  0  0  0  0  0  0  0  0  0  0
  1  2  1  6
  3  2  1  6
  3  4  1  0
  4  5  1  6
  5  6  1  0
  6  7  2  0
  7  8  1  0
  8  9  1  0
  8 10  2  0
 10 11  1  0
 11 12  1  0
 12 13  3  0
 11 14  2  0
 15  4  1  1
 15 16  1  0
 17 16  1  6
 16 18  1  6
  2 18  1  1
 14  6  1  0
M  END
$$$$
