_rank19
     RDKit          3D

 18 19  0  0  0  0  0  0  0  0999 V2000
   20.6442    0.1695  -12.9577 C   0  0  0  0  0  0  0  0  0  0  0  0
   21.2032   -0.5984  -11.7852 C   0  0  1  0  0  0  0  0  0  0  0  0
   22.1562    0.2185  -10.9632 C   0  0  0  0  0  0  0  0  0  0  0  0
   23.0188   -0.8104  -10.1640 C   0  0  2  0  0  0  0  0  0  0  0  0
   24.0828   -1.1655  -11.0201 O   0  0  0  0  0  0  0  0  0  0  0  0
   25.3860   -0.9880  -10.6540 C   0  0  0  0  0  0  0  0  0  0  0  0
   26.4260   -1.4993  -11.3543 C   0  0  0  0  0  0  0  0  0  0  0  0
   27.7397   -1.3035  -10.9367 C   0  0  0  0  0  0  0  0  0  0  0  0
   28.7546   -1.8210  -11.6506 F   0  0  0  0  0  0  0  0  0  0  0  0
   27.9951   -0.5828   -9.8057 C   0  0  0  0  0  0  0  0  0  0  0  0
   26.9390   -0.0482   -9.0724 C   0  0  0  0  0  0  0  0  0  0  0  0
   27.2260    0.7130   -7.8815 C   0  0  0  0  0  0  0  0  0  0  0  0
   27.4484    1.3415   -6.9084 N   0  0  0  0  0  0  0  0  0  0  0  0
   25.6784   -0.2475   -9.4919 C   0  0  0  0  0  0  0  0  0  0  0  0
   22.1830   -2.0172   -9.9347 C   0  0  0  0  0  0  0  0  0  0  0  0
   20.7070   -1.7155   -9.8540 C   0  0  1  0  0  0  0  0  0  0  0  0
   20.4004   -0.9460   -8.6174 C   0  0  0  0  0  0  0  0  0  0  0  0
   20.1982   -1.0688  -10.9778 O   0  0  0  0  0  0  0  0  0  0  0  0
  1  2  1  6
  3  2  1  6
  3  4  1  0
  4  5  1  6
  5  6  1  0
  6  7  2  0
  7  8  1  0
  8  9  1  0
  8 10  2  0
 10 11  1  0
 11 12  1  0
 12 13  3  0
 11 14  2  0
 15  4  1  1
 15 16  1  0
 17 16  1  6
 16 18  1  6
  2 18  1  1
 14  6  1  0
M  END
$$$$
