_rank1
     RDKit          3D

 18 19  0  0  0  0  0  0  0  0999 V2000
   27.4765   -0.7092   -8.0379 C   0  0  0  0  0  0  0  0  0  0  0  0
   26.7317   -0.5292   -9.3378 C   0  0  1  0  0  0  0  0  0  0  0  0
   25.5759    0.4194   -9.2130 C   0  0  0  0  0  0  0  0  0  0  0  0
   24.6309    0.0993  -10.4155 C   0  0  2  0  0  0  0  0  0  0  0  0
   23.7976   -0.9525   -9.9788 O   0  0  0  0  0  0  0  0  0  0  0  0
   22.4529   -0.9451  -10.2141 C   0  0  0  0  0  0  0  0  0  0  0  0
   21.8120   -1.9430  -10.8677 C   0  0  0  0  0  0  0  0  0  0  0  0
   20.4397   -1.8876  -11.0966 C   0  0  0  0  0  0  0  0  0  0  0  0
   19.8273   -2.8921  -11.7472 F   0  0  0  0  0  0  0  0  0  0  0  0
   19.7180   -0.8158  -10.6559 C   0  0  0  0  0  0  0  0  0  0  0  0
   20.3589    0.2199   -9.9810 C   0  0  0  0  0  0  0  0  0  0  0  0
   19.5814    1.3437   -9.5197 C   0  0  0  0  0  0  0  0  0  0  0  0
   18.9567    2.2676   -9.1358 N   0  0  0  0  0  0  0  0  0  0  0  0
   21.6835    0.1479   -9.7694 C   0  0  0  0  0  0  0  0  0  0  0  0
   25.4744   -0.4067  -11.5291 C   0  0  0  0  0  0  0  0  0  0  0  0
   26.8773    0.1481  -11.5159 C   0  0  1  0  0  0  0  0  0  0  0  0
   26.8649    1.6014  -11.8364 C   0  0  0  0  0  0  0  0  0  0  0  0
   27.5705   -0.0913  -10.3318 O   0  0  0  0  0  0  0  0  0  0  0  0
  1  2  1  6
  3  2  1  6
  3  4  1  0
  4  5  1  1
  5  6  1  0
  6  7  2  0
  7  8  1  0
  8  9  1  0
  8 10  2  0
 10 11  1  0
 11 12  1  0
 12 13  3  0
 11 14  2  0
 15  4  1  1
 15 16  1  0
 17 16  1  6
 16 18  1  1
  2 18  1  6
 14  6  1  0
M  END
$$$$
