_rank16
     RDKit          3D

 18 19  0  0  0  0  0  0  0  0999 V2000
   19.7116   -1.0015   -8.6533 C   0  0  0  0  0  0  0  0  0  0  0  0
   20.6471   -0.7341   -9.8067 C   0  0  1  0  0  0  0  0  0  0  0  0
   21.5953   -1.8702  -10.0546 C   0  0  0  0  0  0  0  0  0  0  0  0
   22.7857   -1.2621  -10.8637 C   0  0  2  0  0  0  0  0  0  0  0  0
   23.6786   -0.7445   -9.9013 O   0  0  0  0  0  0  0  0  0  0  0  0
   25.0091   -0.5935  -10.1674 C   0  0  0  0  0  0  0  0  0  0  0  0
   25.5012   -0.4644  -11.4223 C   0  0  0  0  0  0  0  0  0  0  0  0
   26.8680   -0.3250  -11.6479 C   0  0  0  0  0  0  0  0  0  0  0  0
   27.3309   -0.1975  -12.9036 F   0  0  0  0  0  0  0  0  0  0  0  0
   27.7351   -0.3136  -10.5934 C   0  0  0  0  0  0  0  0  0  0  0  0
   27.2482   -0.4443   -9.2955 C   0  0  0  0  0  0  0  0  0  0  0  0
   28.1774   -0.4276   -8.1925 C   0  0  0  0  0  0  0  0  0  0  0  0
   28.9383   -0.4002   -7.2916 N   0  0  0  0  0  0  0  0  0  0  0  0
   25.9261   -0.5771   -9.0982 C   0  0  0  0  0  0  0  0  0  0  0  0
   22.2544   -0.1281  -11.6632 C   0  0  0  0  0  0  0  0  0  0  0  0
   20.8038   -0.2930  -12.0438 C   0  0  1  0  0  0  0  0  0  0  0  0
   20.6463   -1.4012  -13.0246 C   0  0  0  0  0  0  0  0  0  0  0  0
   19.9492   -0.4683  -10.9580 O   0  0  0  0  0  0  0  0  0  0  0  0
  1  2  1  6
  3  2  1  6
  3  4  1  0
  4  5  1  1
  5  6  1  0
  6  7  2  0
  7  8  1  0
  8  9  1  0
  8 10  2  0
 10 11  1  0
 11 12  1  0
 12 13  3  0
 11 14  2  0
 15  4  1  1
 15 16  1  0
 17 16  1  6
 16 18  1  1
  2 18  1  6
 14  6  1  0
M  END
$$$$
