_rank15
     RDKit          3D

 18 19  0  0  0  0  0  0  0  0999 V2000
   19.9294   -2.6404   -9.2580 C   0  0  0  0  0  0  0  0  0  0  0  0
   20.6011   -1.5395  -10.0415 C   0  0  1  0  0  0  0  0  0  0  0  0
   21.7756   -2.0314  -10.8352 C   0  0  0  0  0  0  0  0  0  0  0  0
   22.6456   -0.7686  -11.1348 C   0  0  2  0  0  0  0  0  0  0  0  0
   23.4874   -0.6082  -10.0138 O   0  0  0  0  0  0  0  0  0  0  0  0
   24.8451   -0.5428  -10.1416 C   0  0  0  0  0  0  0  0  0  0  0  0
   25.4867   -0.7456  -11.3167 C   0  0  0  0  0  0  0  0  0  0  0  0
   26.8752   -0.6814  -11.3983 C   0  0  0  0  0  0  0  0  0  0  0  0
   27.4879   -0.8857  -12.5774 F   0  0  0  0  0  0  0  0  0  0  0  0
   27.6115   -0.4068  -10.2819 C   0  0  0  0  0  0  0  0  0  0  0  0
   26.9699   -0.1944   -9.0645 C   0  0  0  0  0  0  0  0  0  0  0  0
   27.7622    0.0973   -7.8952 C   0  0  0  0  0  0  0  0  0  0  0  0
   28.4216    0.3325   -6.9459 N   0  0  0  0  0  0  0  0  0  0  0  0
   25.6294   -0.2600   -9.0062 C   0  0  0  0  0  0  0  0  0  0  0  0
   21.7327    0.4017  -11.2028 C   0  0  0  0  0  0  0  0  0  0  0  0
   20.3408    0.0479  -11.6650 C   0  0  1  0  0  0  0  0  0  0  0  0
   20.3556   -0.3559  -13.0974 C   0  0  0  0  0  0  0  0  0  0  0  0
   19.7131   -0.9201  -10.8847 O   0  0  0  0  0  0  0  0  0  0  0  0
  1  2  1  6
  3  2  1  6
  3  4  1  0
  4  5  1  1
  5  6  1  0
  6  7  2  0
  7  8  1  0
  8  9  1  0
  8 10  2  0
 10 11  1  0
 11 12  1  0
 12 13  3  0
 11 14  2  0
 15  4  1  1
 15 16  1  0
 17 16  1  6
 16 18  1  1
  2 18  1  6
 14  6  1  0
M  END
$$$$
