_rank13
     RDKit          3D

 18 19  0  0  0  0  0  0  0  0999 V2000
   27.8337   -1.6748   -8.5410 C   0  0  0  0  0  0  0  0  0  0  0  0
   27.1251   -0.9263   -9.6432 C   0  0  1  0  0  0  0  0  0  0  0  0
   25.8956   -0.2158   -9.1588 C   0  0  0  0  0  0  0  0  0  0  0  0
   25.0227    0.0386  -10.4296 C   0  0  2  0  0  0  0  0  0  0  0  0
   24.2580   -1.1335  -10.6103 O   0  0  0  0  0  0  0  0  0  0  0  0
   22.9109   -1.1503  -10.3892 C   0  0  0  0  0  0  0  0  0  0  0  0
   22.0095   -1.4758  -11.3459 C   0  0  0  0  0  0  0  0  0  0  0  0
   20.6430   -1.4676  -11.0792 C   0  0  0  0  0  0  0  0  0  0  0  0
   19.7689   -1.7957  -12.0465 F   0  0  0  0  0  0  0  0  0  0  0  0
   20.1936   -1.1308   -9.8348 C   0  0  0  0  0  0  0  0  0  0  0  0
   21.1050   -0.7940   -8.8374 C   0  0  0  0  0  0  0  0  0  0  0  0
   20.6138   -0.4433   -7.5275 C   0  0  0  0  0  0  0  0  0  0  0  0
   20.2124   -0.1432   -6.4597 N   0  0  0  0  0  0  0  0  0  0  0  0
   22.4194   -0.8083   -9.1141 C   0  0  0  0  0  0  0  0  0  0  0  0
   25.9429    0.1772  -11.5879 C   0  0  0  0  0  0  0  0  0  0  0  0
   27.2973    0.7260  -11.2128 C   0  0  1  0  0  0  0  0  0  0  0  0
   27.1841    2.1504  -10.7966 C   0  0  0  0  0  0  0  0  0  0  0  0
   27.9633   -0.0210  -10.2441 O   0  0  0  0  0  0  0  0  0  0  0  0
  1  2  1  6
  3  2  1  6
  3  4  1  0
  4  5  1  6
  5  6  1  0
  6  7  2  0
  7  8  1  0
  8  9  1  0
  8 10  2  0
 10 11  1  0
 11 12  1  0
 12 13  3  0
 11 14  2  0
 15  4  1  1
 15 16  1  0
 17 16  1  6
 16 18  1  1
  2 18  1  1
 14  6  1  0
M  END
$$$$
