_rank12
     RDKit          3D

 18 19  0  0  0  0  0  0  0  0999 V2000
   19.8846    1.6618   -9.7575 C   0  0  0  0  0  0  0  0  0  0  0  0
   20.5505    0.4077  -10.2682 C   0  0  1  0  0  0  0  0  0  0  0  0
   21.7539    0.0238   -9.4584 C   0  0  0  0  0  0  0  0  0  0  0  0
   22.6029   -0.9135  -10.3761 C   0  0  2  0  0  0  0  0  0  0  0  0
   23.4143   -0.0582  -11.1516 O   0  0  0  0  0  0  0  0  0  0  0  0
   24.7673   -0.0031  -10.9777 C   0  0  0  0  0  0  0  0  0  0  0  0
   25.6287    0.2989  -11.9780 C   0  0  0  0  0  0  0  0  0  0  0  0
   27.0031    0.3314  -11.7580 C   0  0  0  0  0  0  0  0  0  0  0  0
   27.8369    0.6351  -12.7680 F   0  0  0  0  0  0  0  0  0  0  0  0
   27.5012    0.0595  -10.5163 C   0  0  0  0  0  0  0  0  0  0  0  0
   26.6314   -0.2523   -9.4747 C   0  0  0  0  0  0  0  0  0  0  0  0
   27.1737   -0.5344   -8.1683 C   0  0  0  0  0  0  0  0  0  0  0  0
   27.6110   -0.7774   -7.1001 N   0  0  0  0  0  0  0  0  0  0  0  0
   25.3085   -0.2781   -9.7066 C   0  0  0  0  0  0  0  0  0  0  0  0
   21.6666   -1.6201  -11.2878 C   0  0  0  0  0  0  0  0  0  0  0  0
   20.2941   -1.8230  -10.6951 C   0  0  1  0  0  0  0  0  0  0  0  0
   20.3516   -2.7979   -9.5721 C   0  0  0  0  0  0  0  0  0  0  0  0
   19.6694   -0.6441  -10.2951 O   0  0  0  0  0  0  0  0  0  0  0  0
  1  2  1  6
  3  2  1  6
  3  4  1  0
  4  5  1  6
  5  6  1  0
  6  7  2  0
  7  8  1  0
  8  9  1  0
  8 10  2  0
 10 11  1  0
 11 12  1  0
 12 13  3  0
 11 14  2  0
 15  4  1  1
 15 16  1  0
 17 16  1  6
 16 18  1  1
  2 18  1  1
 14  6  1  0
M  END
$$$$
