_rank14
     RDKit          3D

 18 19  0  0  0  0  0  0  0  0999 V2000
   20.0395   -2.2998  -11.8709 C   0  0  0  0  0  0  0  0  0  0  0  0
   20.7437   -1.3919  -10.8928 C   0  0  1  0  0  0  0  0  0  0  0  0
   21.6392   -0.3977  -11.5717 C   0  0  0  0  0  0  0  0  0  0  0  0
   22.6546    0.0741  -10.4817 C   0  0  2  0  0  0  0  0  0  0  0  0
   23.7055   -0.8674  -10.5036 O   0  0  0  0  0  0  0  0  0  0  0  0
   25.0132   -0.4793  -10.5596 C   0  0  0  0  0  0  0  0  0  0  0  0
   25.6499   -0.1943  -11.7202 C   0  0  0  0  0  0  0  0  0  0  0  0
   26.9892    0.1860  -11.7311 C   0  0  0  0  0  0  0  0  0  0  0  0
   27.5978    0.4646  -12.8970 F   0  0  0  0  0  0  0  0  0  0  0  0
   27.6806    0.2798  -10.5576 C   0  0  0  0  0  0  0  0  0  0  0  0
   27.0431   -0.0084   -9.3537 C   0  0  0  0  0  0  0  0  0  0  0  0
   27.7870    0.0981   -8.1227 C   0  0  0  0  0  0  0  0  0  0  0  0
   28.4004    0.1974   -7.1201 N   0  0  0  0  0  0  0  0  0  0  0  0
   25.7502   -0.3731   -9.3638 C   0  0  0  0  0  0  0  0  0  0  0  0
   21.9753   -0.0170   -9.1635 C   0  0  0  0  0  0  0  0  0  0  0  0
   20.4808    0.1721   -9.2470 C   0  0  1  0  0  0  0  0  0  0  0  0
   20.1542    1.5771   -9.6132 C   0  0  0  0  0  0  0  0  0  0  0  0
   19.8429   -0.7230  -10.1025 O   0  0  0  0  0  0  0  0  0  0  0  0
  1  2  1  6
  3  2  1  6
  3  4  1  0
  4  5  1  1
  5  6  1  0
  6  7  2  0
  7  8  1  0
  8  9  1  0
  8 10  2  0
 10 11  1  0
 11 12  1  0
 12 13  3  0
 11 14  2  0
 15  4  1  1
 15 16  1  0
 17 16  1  6
 16 18  1  6
  2 18  1  6
 14  6  1  0
M  END
$$$$
