_rank13
     RDKit          3D

 17 18  0  0  0  0  0  0  0  0999 V2000
   26.3765    0.0734  -13.3637 N   0  0  0  0  0  0  0  0  0  0  0  0
   26.3531   -0.0896  -12.2181 C   0  0  0  0  0  0  0  0  0  0  0  0
   26.3143   -0.3172  -10.7810 C   0  0  0  0  0  0  0  0  0  0  0  0
   27.4433   -0.8143  -10.1475 C   0  0  0  0  0  0  0  0  0  0  0  0
   27.5034   -1.0723   -8.7941 C   0  0  0  0  0  0  0  0  0  0  0  0
   28.6475   -1.5617   -8.2334 F   0  0  0  0  0  0  0  0  0  0  0  0
   26.3788   -0.8209   -8.0365 C   0  0  0  0  0  0  0  0  0  0  0  0
   25.2461   -0.3266   -8.6462 C   0  0  0  0  0  0  0  0  0  0  0  0
   25.1915   -0.0665  -10.0210 C   0  0  0  0  0  0  0  0  0  0  0  0
   24.0701    0.4220  -10.6244 O   0  0  0  0  0  0  0  0  0  0  0  0
   22.7973   -0.0995  -10.5863 C   0  0  0  0  0  0  0  0  0  0  0  0
   21.6782    0.6631  -10.3450 C   0  0  0  0  0  0  0  0  0  0  0  0
   20.4033    0.0955  -10.3159 C   0  0  0  0  0  0  0  0  0  0  0  0
   20.2564   -1.2494  -10.5312 C   0  0  0  0  0  0  0  0  0  0  0  0
   21.3664   -2.0435  -10.7768 C   0  0  0  0  0  0  0  0  0  0  0  0
   21.1877   -3.3706  -10.9858 F   0  0  0  0  0  0  0  0  0  0  0  0
   22.6225   -1.4476  -10.7993 C   0  0  0  0  0  0  0  0  0  0  0  0
  1  2  3  0
  2  3  1  0
  3  4  2  0
  4  5  1  0
  5  6  1  0
  5  7  2  0
  7  8  1  0
  8  9  2  0
  9 10  1  0
 10 11  1  0
 11 12  2  0
 12 13  1  0
 13 14  2  0
 14 15  1  0
 15 16  1  0
 15 17  2  0
  9  3  1  0
 17 11  1  0
M  END
$$$$
