_rank7
     RDKit          3D

 17 18  0  0  0  0  0  0  0  0999 V2000
   26.0872   -0.4406   -7.5694 N   0  0  0  0  0  0  0  0  0  0  0  0
   25.8761   -0.3529   -8.7039 C   0  0  0  0  0  0  0  0  0  0  0  0
   25.6146   -0.2670  -10.1332 C   0  0  0  0  0  0  0  0  0  0  0  0
   26.6861   -0.2366  -11.0130 C   0  0  0  0  0  0  0  0  0  0  0  0
   26.5430   -0.1467  -12.3816 C   0  0  0  0  0  0  0  0  0  0  0  0
   27.6411   -0.1214  -13.1917 F   0  0  0  0  0  0  0  0  0  0  0  0
   25.2650   -0.0839  -12.8962 C   0  0  0  0  0  0  0  0  0  0  0  0
   24.1860   -0.1129  -12.0395 C   0  0  0  0  0  0  0  0  0  0  0  0
   24.3380   -0.2045  -10.6506 C   0  0  0  0  0  0  0  0  0  0  0  0
   23.2700   -0.2322   -9.8027 O   0  0  0  0  0  0  0  0  0  0  0  0
   21.9345   -0.2799  -10.1306 C   0  0  0  0  0  0  0  0  0  0  0  0
   21.1151    0.8248  -10.1136 C   0  0  0  0  0  0  0  0  0  0  0  0
   19.7646    0.7345  -10.4546 C   0  0  0  0  0  0  0  0  0  0  0  0
   19.2373   -0.4775  -10.8147 C   0  0  0  0  0  0  0  0  0  0  0  0
   20.0390   -1.6087  -10.8408 C   0  0  0  0  0  0  0  0  0  0  0  0
   19.4872   -2.7931  -11.2012 F   0  0  0  0  0  0  0  0  0  0  0  0
   21.3803   -1.4853  -10.4957 C   0  0  0  0  0  0  0  0  0  0  0  0
  1  2  3  0
  2  3  1  0
  3  4  2  0
  4  5  1  0
  5  6  1  0
  5  7  2  0
  7  8  1  0
  8  9  2  0
  9 10  1  0
 10 11  1  0
 11 12  2  0
 12 13  1  0
 13 14  2  0
 14 15  1  0
 15 16  1  0
 15 17  2  0
  9  3  1  0
 17 11  1  0
M  END
$$$$
