_rank5
     RDKit          3D

 17 18  0  0  0  0  0  0  0  0999 V2000
   26.6390    0.1540  -13.4492 N   0  0  0  0  0  0  0  0  0  0  0  0
   26.4262    0.0938  -12.3132 C   0  0  0  0  0  0  0  0  0  0  0  0
   26.1650    0.0419  -10.8822 C   0  0  0  0  0  0  0  0  0  0  0  0
   27.1915    0.3412   -9.9992 C   0  0  0  0  0  0  0  0  0  0  0  0
   27.0472    0.3111   -8.6281 C   0  0  0  0  0  0  0  0  0  0  0  0
   28.0997    0.6173   -7.8149 F   0  0  0  0  0  0  0  0  0  0  0  0
   25.8152   -0.0356   -8.1142 C   0  0  0  0  0  0  0  0  0  0  0  0
   24.7813   -0.3366   -8.9741 C   0  0  0  0  0  0  0  0  0  0  0  0
   24.9343   -0.3040  -10.3656 C   0  0  0  0  0  0  0  0  0  0  0  0
   23.9110   -0.6028  -11.2165 O   0  0  0  0  0  0  0  0  0  0  0  0
   22.5666   -0.6627  -10.9299 C   0  0  0  0  0  0  0  0  0  0  0  0
   21.8193   -1.8103  -11.0603 C   0  0  0  0  0  0  0  0  0  0  0  0
   20.4569   -1.8298  -10.7578 C   0  0  0  0  0  0  0  0  0  0  0  0
   19.8443   -0.6848  -10.3214 C   0  0  0  0  0  0  0  0  0  0  0  0
   20.5719    0.4873  -10.1804 C   0  0  0  0  0  0  0  0  0  0  0  0
   19.9366    1.6032   -9.7466 F   0  0  0  0  0  0  0  0  0  0  0  0
   21.9275    0.4736  -10.4899 C   0  0  0  0  0  0  0  0  0  0  0  0
  1  2  3  0
  2  3  1  0
  3  4  2  0
  4  5  1  0
  5  6  1  0
  5  7  2  0
  7  8  1  0
  8  9  2  0
  9 10  1  0
 10 11  1  0
 11 12  2  0
 12 13  1  0
 13 14  2  0
 14 15  1  0
 15 16  1  0
 15 17  2  0
  9  3  1  0
 17 11  1  0
M  END
$$$$
