_rank8
     RDKit          3D

 17 18  0  0  0  0  0  0  0  0999 V2000
   26.6482   -1.2908  -13.1701 N   0  0  0  0  0  0  0  0  0  0  0  0
   26.5637   -1.0071  -12.0512 C   0  0  0  0  0  0  0  0  0  0  0  0
   26.4355   -0.6399  -10.6486 C   0  0  0  0  0  0  0  0  0  0  0  0
   27.5376   -0.7655   -9.8164 C   0  0  0  0  0  0  0  0  0  0  0  0
   27.5150   -0.4533   -8.4734 C   0  0  0  0  0  0  0  0  0  0  0  0
   28.6368   -0.6001   -7.7101 F   0  0  0  0  0  0  0  0  0  0  0  0
   26.3315    0.0073   -7.9356 C   0  0  0  0  0  0  0  0  0  0  0  0
   25.2241    0.1397   -8.7451 C   0  0  0  0  0  0  0  0  0  0  0  0
   25.2537   -0.1788  -10.1083 C   0  0  0  0  0  0  0  0  0  0  0  0
   24.1573   -0.0485  -10.9092 O   0  0  0  0  0  0  0  0  0  0  0  0
   22.8813   -0.5054  -10.6721 C   0  0  0  0  0  0  0  0  0  0  0  0
   22.5837   -1.8314  -10.4592 C   0  0  0  0  0  0  0  0  0  0  0  0
   21.2751   -2.2544  -10.2207 C   0  0  0  0  0  0  0  0  0  0  0  0
   20.2604   -1.3343  -10.1970 C   0  0  0  0  0  0  0  0  0  0  0  0
   20.5300    0.0095  -10.4085 C   0  0  0  0  0  0  0  0  0  0  0  0
   19.5042    0.8948  -10.3789 F   0  0  0  0  0  0  0  0  0  0  0  0
   21.8441    0.3984  -10.6433 C   0  0  0  0  0  0  0  0  0  0  0  0
  1  2  3  0
  2  3  1  0
  3  4  2  0
  4  5  1  0
  5  6  1  0
  5  7  2  0
  7  8  1  0
  8  9  2  0
  9 10  1  0
 10 11  1  0
 11 12  2  0
 12 13  1  0
 13 14  2  0
 14 15  1  0
 15 16  1  0
 15 17  2  0
  9  3  1  0
 17 11  1  0
M  END
$$$$
