_rank4
     RDKit          3D

 17 18  0  0  0  0  0  0  0  0999 V2000
   25.7246    0.8384  -13.4139 N   0  0  0  0  0  0  0  0  0  0  0  0
   25.7247    0.4963  -12.3082 C   0  0  0  0  0  0  0  0  0  0  0  0
   25.7460    0.0785  -10.9141 C   0  0  0  0  0  0  0  0  0  0  0  0
   26.8420    0.4055  -10.1300 C   0  0  0  0  0  0  0  0  0  0  0  0
   26.9609    0.0478   -8.8035 C   0  0  0  0  0  0  0  0  0  0  0  0
   28.0678    0.4023   -8.0881 F   0  0  0  0  0  0  0  0  0  0  0  0
   25.9329   -0.6726   -8.2325 C   0  0  0  0  0  0  0  0  0  0  0  0
   24.8343   -1.0079   -8.9939 C   0  0  0  0  0  0  0  0  0  0  0  0
   24.7195   -0.6415  -10.3405 C   0  0  0  0  0  0  0  0  0  0  0  0
   23.6325   -0.9742  -11.0942 O   0  0  0  0  0  0  0  0  0  0  0  0
   22.3165   -0.6419  -10.8682 C   0  0  0  0  0  0  0  0  0  0  0  0
   21.9150    0.6093  -10.4613 C   0  0  0  0  0  0  0  0  0  0  0  0
   20.5687    0.9067  -10.2440 C   0  0  0  0  0  0  0  0  0  0  0  0
   19.6216   -0.0638  -10.4380 C   0  0  0  0  0  0  0  0  0  0  0  0
   19.9964   -1.3345  -10.8479 C   0  0  0  0  0  0  0  0  0  0  0  0
   19.0354   -2.2725  -11.0309 F   0  0  0  0  0  0  0  0  0  0  0  0
   21.3456   -1.5987  -11.0558 C   0  0  0  0  0  0  0  0  0  0  0  0
  1  2  3  0
  2  3  1  0
  3  4  2  0
  4  5  1  0
  5  6  1  0
  5  7  2  0
  7  8  1  0
  8  9  2  0
  9 10  1  0
 10 11  1  0
 11 12  2  0
 12 13  1  0
 13 14  2  0
 14 15  1  0
 15 16  1  0
 15 17  2  0
  9  3  1  0
 17 11  1  0
M  END
$$$$
