_rank11
     RDKit          3D

 17 18  0  0  0  0  0  0  0  0999 V2000
   26.2335   -1.0229   -7.8286 N   0  0  0  0  0  0  0  0  0  0  0  0
   26.1015   -0.7577   -8.9474 C   0  0  0  0  0  0  0  0  0  0  0  0
   25.9592   -0.4299  -10.3584 C   0  0  0  0  0  0  0  0  0  0  0  0
   27.0371    0.1234  -11.0329 C   0  0  0  0  0  0  0  0  0  0  0  0
   26.9993    0.4768  -12.3654 C   0  0  0  0  0  0  0  0  0  0  0  0
   28.0974    1.0175  -12.9690 F   0  0  0  0  0  0  0  0  0  0  0  0
   25.8253    0.2665  -13.0579 C   0  0  0  0  0  0  0  0  0  0  0  0
   24.7420   -0.2825  -12.4066 C   0  0  0  0  0  0  0  0  0  0  0  0
   24.7869   -0.6394  -11.0534 C   0  0  0  0  0  0  0  0  0  0  0  0
   23.7143   -1.1819  -10.4088 O   0  0  0  0  0  0  0  0  0  0  0  0
   22.3948   -0.8033  -10.5022 C   0  0  0  0  0  0  0  0  0  0  0  0
   21.9902    0.5105  -10.5528 C   0  0  0  0  0  0  0  0  0  0  0  0
   20.6405    0.8531  -10.6489 C   0  0  0  0  0  0  0  0  0  0  0  0
   19.6931   -0.1354  -10.6939 C   0  0  0  0  0  0  0  0  0  0  0  0
   20.0710   -1.4687  -10.6444 C   0  0  0  0  0  0  0  0  0  0  0  0
   19.1096   -2.4230  -10.6909 F   0  0  0  0  0  0  0  0  0  0  0  0
   21.4235   -1.7768  -10.5490 C   0  0  0  0  0  0  0  0  0  0  0  0
  1  2  3  0
  2  3  1  0
  3  4  2  0
  4  5  1  0
  5  6  1  0
  5  7  2  0
  7  8  1  0
  8  9  2  0
  9 10  1  0
 10 11  1  0
 11 12  2  0
 12 13  1  0
 13 14  2  0
 14 15  1  0
 15 16  1  0
 15 17  2  0
  9  3  1  0
 17 11  1  0
M  END
$$$$
