_rank9
     RDKit          3D

 17 18  0  0  0  0  0  0  0  0999 V2000
   26.1695   -0.4775   -7.6337 N   0  0  0  0  0  0  0  0  0  0  0  0
   26.0423   -0.3560   -8.7776 C   0  0  0  0  0  0  0  0  0  0  0  0
   25.8990   -0.1850  -10.2160 C   0  0  0  0  0  0  0  0  0  0  0  0
   27.0391   -0.0796  -10.9982 C   0  0  0  0  0  0  0  0  0  0  0  0
   27.0087    0.0937  -12.3660 C   0  0  0  0  0  0  0  0  0  0  0  0
   28.1696    0.1901  -13.0770 F   0  0  0  0  0  0  0  0  0  0  0  0
   25.7770    0.1652  -12.9823 C   0  0  0  0  0  0  0  0  0  0  0  0
   24.6312    0.0626  -12.2234 C   0  0  0  0  0  0  0  0  0  0  0  0
   24.6689   -0.1135  -10.8348 C   0  0  0  0  0  0  0  0  0  0  0  0
   23.5348   -0.2142  -10.0839 O   0  0  0  0  0  0  0  0  0  0  0  0
   22.2809   -0.6001  -10.4984 C   0  0  0  0  0  0  0  0  0  0  0  0
   22.0618   -1.6582  -11.3497 C   0  0  0  0  0  0  0  0  0  0  0  0
   20.7729   -2.0187  -11.7459 C   0  0  0  0  0  0  0  0  0  0  0  0
   19.6983   -1.3076  -11.2807 C   0  0  0  0  0  0  0  0  0  0  0  0
   19.8883   -0.2357  -10.4215 C   0  0  0  0  0  0  0  0  0  0  0  0
   18.8047    0.4477   -9.9792 F   0  0  0  0  0  0  0  0  0  0  0  0
   21.1848    0.0978  -10.0458 C   0  0  0  0  0  0  0  0  0  0  0  0
  1  2  3  0
  2  3  1  0
  3  4  2  0
  4  5  1  0
  5  6  1  0
  5  7  2  0
  7  8  1  0
  8  9  2  0
  9 10  1  0
 10 11  1  0
 11 12  2  0
 12 13  1  0
 13 14  2  0
 14 15  1  0
 15 16  1  0
 15 17  2  0
  9  3  1  0
 17 11  1  0
M  END
$$$$
