_rank16
     RDKit          3D

 17 18  0  0  0  0  0  0  0  0999 V2000
   22.0152    1.7790   -9.0018 N   0  0  0  0  0  0  0  0  0  0  0  0
   21.9798    0.7684   -9.5648 C   0  0  0  0  0  0  0  0  0  0  0  0
   21.9448   -0.5137  -10.2530 C   0  0  0  0  0  0  0  0  0  0  0  0
   20.8008   -1.2927  -10.1672 C   0  0  0  0  0  0  0  0  0  0  0  0
   20.6731   -2.5243  -10.7743 C   0  0  0  0  0  0  0  0  0  0  0  0
   19.5179   -3.2404  -10.6496 F   0  0  0  0  0  0  0  0  0  0  0  0
   21.7423   -3.0007  -11.5035 C   0  0  0  0  0  0  0  0  0  0  0  0
   22.8887   -2.2423  -11.6018 C   0  0  0  0  0  0  0  0  0  0  0  0
   23.0121   -0.9923  -10.9831 C   0  0  0  0  0  0  0  0  0  0  0  0
   24.1472   -0.2422  -11.0798 O   0  0  0  0  0  0  0  0  0  0  0  0
   25.3539   -0.4551  -10.4540 C   0  0  0  0  0  0  0  0  0  0  0  0
   25.4697   -0.7025   -9.1058 C   0  0  0  0  0  0  0  0  0  0  0  0
   26.7135   -0.9146   -8.5090 C   0  0  0  0  0  0  0  0  0  0  0  0
   27.8475   -0.8767   -9.2767 C   0  0  0  0  0  0  0  0  0  0  0  0
   27.7620   -0.6292  -10.6385 C   0  0  0  0  0  0  0  0  0  0  0  0
   28.9024   -0.5981  -11.3704 F   0  0  0  0  0  0  0  0  0  0  0  0
   26.5080   -0.4221  -11.2026 C   0  0  0  0  0  0  0  0  0  0  0  0
  1  2  3  0
  2  3  1  0
  3  4  2  0
  4  5  1  0
  5  6  1  0
  5  7  2  0
  7  8  1  0
  8  9  2  0
  9 10  1  0
 10 11  1  0
 11 12  2  0
 12 13  1  0
 13 14  2  0
 14 15  1  0
 15 16  1  0
 15 17  2  0
  9  3  1  0
 17 11  1  0
M  END
$$$$
