_rank10
     RDKit          3D

 17 18  0  0  0  0  0  0  0  0999 V2000
   26.0669   -1.0632   -7.6130 N   0  0  0  0  0  0  0  0  0  0  0  0
   25.9377   -0.7651   -8.7238 C   0  0  0  0  0  0  0  0  0  0  0  0
   25.7912   -0.3718  -10.1176 C   0  0  0  0  0  0  0  0  0  0  0  0
   26.8623    0.2260  -10.7644 C   0  0  0  0  0  0  0  0  0  0  0  0
   26.8200    0.6424  -12.0784 C   0  0  0  0  0  0  0  0  0  0  0  0
   27.9115    1.2244  -12.6551 F   0  0  0  0  0  0  0  0  0  0  0  0
   25.6484    0.4516  -12.7806 C   0  0  0  0  0  0  0  0  0  0  0  0
   24.5718   -0.1408  -12.1568 C   0  0  0  0  0  0  0  0  0  0  0  0
   24.6213   -0.5616  -10.8222 C   0  0  0  0  0  0  0  0  0  0  0  0
   23.5554   -1.1471  -10.2047 O   0  0  0  0  0  0  0  0  0  0  0  0
   22.2268   -0.8059  -10.3128 C   0  0  0  0  0  0  0  0  0  0  0  0
   21.7789    0.4945  -10.2882 C   0  0  0  0  0  0  0  0  0  0  0  0
   20.4215    0.7989  -10.4023 C   0  0  0  0  0  0  0  0  0  0  0  0
   19.5103   -0.2144  -10.5417 C   0  0  0  0  0  0  0  0  0  0  0  0
   19.9322   -1.5351  -10.5695 C   0  0  0  0  0  0  0  0  0  0  0  0
   19.0058   -2.5147  -10.7085 F   0  0  0  0  0  0  0  0  0  0  0  0
   21.2913   -1.8051  -10.4537 C   0  0  0  0  0  0  0  0  0  0  0  0
  1  2  3  0
  2  3  1  0
  3  4  2  0
  4  5  1  0
  5  6  1  0
  5  7  2  0
  7  8  1  0
  8  9  2  0
  9 10  1  0
 10 11  1  0
 11 12  2  0
 12 13  1  0
 13 14  2  0
 14 15  1  0
 15 16  1  0
 15 17  2  0
  9  3  1  0
 17 11  1  0
M  END
$$$$
