_rank6
     RDKit          3D

 17 18  0  0  0  0  0  0  0  0999 V2000
   26.6145    0.2402  -13.5163 N   0  0  0  0  0  0  0  0  0  0  0  0
   26.4798    0.0634  -12.3805 C   0  0  0  0  0  0  0  0  0  0  0  0
   26.2945   -0.1772  -10.9570 C   0  0  0  0  0  0  0  0  0  0  0  0
   27.4089   -0.2382  -10.1340 C   0  0  0  0  0  0  0  0  0  0  0  0
   27.3389   -0.4705   -8.7764 C   0  0  0  0  0  0  0  0  0  0  0  0
   28.4762   -0.5181   -8.0233 F   0  0  0  0  0  0  0  0  0  0  0  0
   26.0928   -0.6509   -8.2138 C   0  0  0  0  0  0  0  0  0  0  0  0
   24.9721   -0.5940   -9.0138 C   0  0  0  0  0  0  0  0  0  0  0  0
   25.0499   -0.3575  -10.3917 C   0  0  0  0  0  0  0  0  0  0  0  0
   23.9406   -0.3022  -11.1834 O   0  0  0  0  0  0  0  0  0  0  0  0
   22.6327   -0.5247  -10.8186 C   0  0  0  0  0  0  0  0  0  0  0  0
   21.8504    0.4253  -10.2040 C   0  0  0  0  0  0  0  0  0  0  0  0
   20.5264    0.1601   -9.8507 C   0  0  0  0  0  0  0  0  0  0  0  0
   19.9881   -1.0708  -10.1187 C   0  0  0  0  0  0  0  0  0  0  0  0
   20.7528   -2.0485  -10.7372 C   0  0  0  0  0  0  0  0  0  0  0  0
   20.1911   -3.2562  -10.9885 F   0  0  0  0  0  0  0  0  0  0  0  0
   22.0683   -1.7528  -11.0766 C   0  0  0  0  0  0  0  0  0  0  0  0
  1  2  3  0
  2  3  1  0
  3  4  2  0
  4  5  1  0
  5  6  1  0
  5  7  2  0
  7  8  1  0
  8  9  2  0
  9 10  1  0
 10 11  1  0
 11 12  2  0
 12 13  1  0
 13 14  2  0
 14 15  1  0
 15 16  1  0
 15 17  2  0
  9  3  1  0
 17 11  1  0
M  END
$$$$
