_rank20
     RDKit          3D

 18 19  0  0  0  0  0  0  0  0999 V2000
   29.3615    4.9773  -14.5595 C   0  0  0  0  0  0  0  0  0  0  0  0
   28.7894    3.6272  -14.2673 C   0  0  0  0  0  0  0  0  0  0  0  0
   27.4064    3.5829  -13.9720 N   0  0  0  0  0  0  0  0  0  0  0  0
   26.8040    2.3518  -13.6792 C   0  0  1  0  0  0  0  0  0  0  0  0
   27.7717    1.1960  -13.5314 C   0  0  0  0  0  0  0  0  0  0  0  0
   26.8118    0.0686  -13.1953 C   0  0  0  0  0  0  0  0  0  0  0  0
   25.6189    0.7331  -12.4875 C   0  0  1  0  0  0  0  0  0  0  0  0
   25.4087    0.2111  -11.2300 O   0  0  0  0  0  0  0  0  0  0  0  0
   24.3263   -0.5135  -10.7829 C   0  0  0  0  0  0  0  0  0  0  0  0
   23.2095   -0.7196  -11.5802 C   0  0  0  0  0  0  0  0  0  0  0  0
   22.1075   -1.4335  -11.1782 C   0  0  0  0  0  0  0  0  0  0  0  0
   21.0305   -1.6239  -11.9667 F   0  0  0  0  0  0  0  0  0  0  0  0
   22.0768   -1.9865   -9.9249 C   0  0  0  0  0  0  0  0  0  0  0  0
   23.1593   -1.8139   -9.0887 C   0  0  0  0  0  0  0  0  0  0  0  0
   23.1285   -2.3875   -7.7776 C   0  0  0  0  0  0  0  0  0  0  0  0
   23.1221   -2.8507   -6.7062 N   0  0  0  0  0  0  0  0  0  0  0  0
   24.2695   -1.0803   -9.5279 C   0  0  0  0  0  0  0  0  0  0  0  0
   25.9940    2.2280  -12.4407 C   0  0  0  0  0  0  0  0  0  0  0  0
  1  2  1  6
  2  3  1  1
  4  3  1  1
  4  5  1  0
  5  6  1  6
  6  7  1  1
  7  8  1  1
  8  9  1  0
  9 10  2  0
 10 11  1  0
 11 12  1  0
 11 13  2  0
 13 14  1  0
 14 15  1  0
 15 16  3  0
 14 17  2  0
 18  7  1  1
 18  4  1  0
 17  9  1  0
M  END
$$$$
