_rank1
     RDKit          3D

 18 19  0  0  0  0  0  0  0  0999 V2000
   27.2369    0.1990   -7.3494 C   0  0  0  0  0  0  0  0  0  0  0  0
   26.8486   -0.7858   -8.4052 C   0  0  0  0  0  0  0  0  0  0  0  0
   27.2981   -0.5078   -9.7177 N   0  0  0  0  0  0  0  0  0  0  0  0
   26.4461    0.1551  -10.6114 C   0  0  1  0  0  0  0  0  0  0  0  0
   26.6574   -0.2039  -12.0675 C   0  0  0  0  0  0  0  0  0  0  0  0
   25.5814    0.6429  -12.7236 C   0  0  0  0  0  0  0  0  0  0  0  0
   24.4675    0.7899  -11.6731 C   0  0  1  0  0  0  0  0  0  0  0  0
   23.2565    0.3244  -12.1364 O   0  0  0  0  0  0  0  0  0  0  0  0
   22.1596   -0.0641  -11.3998 C   0  0  0  0  0  0  0  0  0  0  0  0
   21.8212   -1.4014  -11.2491 C   0  0  0  0  0  0  0  0  0  0  0  0
   20.7379   -1.8364  -10.5259 C   0  0  0  0  0  0  0  0  0  0  0  0
   20.4240   -3.1406  -10.3901 F   0  0  0  0  0  0  0  0  0  0  0  0
   19.9249   -0.9244   -9.9058 C   0  0  0  0  0  0  0  0  0  0  0  0
   20.2129    0.4190  -10.0213 C   0  0  0  0  0  0  0  0  0  0  0  0
   19.3633    1.3742   -9.3775 C   0  0  0  0  0  0  0  0  0  0  0  0
   18.6557    2.1472   -8.8634 N   0  0  0  0  0  0  0  0  0  0  0  0
   21.3257    0.8318  -10.7661 C   0  0  0  0  0  0  0  0  0  0  0  0
   24.9789   -0.0223  -10.4662 C   0  0  0  0  0  0  0  0  0  0  0  0
  1  2  1  6
  2  3  1  1
  4  3  1  1
  4  5  1  0
  5  6  1  6
  6  7  1  1
  7  8  1  6
  8  9  1  0
  9 10  2  0
 10 11  1  0
 11 12  1  0
 11 13  2  0
 13 14  1  0
 14 15  1  0
 15 16  3  0
 14 17  2  0
 18  7  1  1
 18  4  1  0
 17  9  1  0
M  END
$$$$
