_rank14
     RDKit          3D

 18 19  0  0  0  0  0  0  0  0999 V2000
   17.7275   -0.2677   -9.7075 C   0  0  0  0  0  0  0  0  0  0  0  0
   19.2036   -0.4082   -9.8984 C   0  0  0  0  0  0  0  0  0  0  0  0
   19.6257   -1.3997  -10.8154 N   0  0  0  0  0  0  0  0  0  0  0  0
   20.9669   -1.4371  -11.2201 C   0  0  1  0  0  0  0  0  0  0  0  0
   21.2539   -0.7119  -12.5185 C   0  0  0  0  0  0  0  0  0  0  0  0
   22.7537   -0.9204  -12.6298 C   0  0  0  0  0  0  0  0  0  0  0  0
   23.2666   -1.0432  -11.1850 C   0  0  1  0  0  0  0  0  0  0  0  0
   24.2279   -0.0994  -10.8966 O   0  0  0  0  0  0  0  0  0  0  0  0
   25.2938   -0.2119  -10.0318 C   0  0  0  0  0  0  0  0  0  0  0  0
   25.3426   -1.2037   -9.0626 C   0  0  0  0  0  0  0  0  0  0  0  0
   26.3825   -1.3548   -8.1786 C   0  0  0  0  0  0  0  0  0  0  0  0
   26.4132   -2.3248   -7.2427 F   0  0  0  0  0  0  0  0  0  0  0  0
   27.4476   -0.4942   -8.2297 C   0  0  0  0  0  0  0  0  0  0  0  0
   27.4531    0.5113   -9.1730 C   0  0  0  0  0  0  0  0  0  0  0  0
   28.5628    1.4139   -9.2264 C   0  0  0  0  0  0  0  0  0  0  0  0
   29.4725    2.1448   -9.2520 N   0  0  0  0  0  0  0  0  0  0  0  0
   26.3772    0.6395  -10.0615 C   0  0  0  0  0  0  0  0  0  0  0  0
   22.0019   -0.8673  -10.3205 C   0  0  0  0  0  0  0  0  0  0  0  0
  1  2  1  6
  2  3  1  1
  4  3  1  1
  4  5  1  0
  5  6  1  6
  6  7  1  1
  7  8  1  1
  8  9  1  0
  9 10  2  0
 10 11  1  0
 11 12  1  0
 11 13  2  0
 13 14  1  0
 14 15  1  0
 15 16  3  0
 14 17  2  0
 18  7  1  1
 18  4  1  0
 17  9  1  0
M  END
$$$$
