_rank17
     RDKit          3D

 18 19  0  0  0  0  0  0  0  0999 V2000
   18.1535   -1.5710   -9.1666 C   0  0  0  0  0  0  0  0  0  0  0  0
   19.4656   -0.9999   -9.5994 C   0  0  0  0  0  0  0  0  0  0  0  0
   19.7730   -1.1085  -10.9763 N   0  0  0  0  0  0  0  0  0  0  0  0
   21.0992   -1.3326  -11.3700 C   0  0  1  0  0  0  0  0  0  0  0  0
   21.4427   -0.8148  -12.7513 C   0  0  0  0  0  0  0  0  0  0  0  0
   22.9129   -1.1856  -12.8316 C   0  0  0  0  0  0  0  0  0  0  0  0
   23.4270   -1.1705  -11.3820 C   0  0  1  0  0  0  0  0  0  0  0  0
   24.4809   -0.2986  -11.2173 O   0  0  0  0  0  0  0  0  0  0  0  0
   25.5029   -0.3683  -10.2968 C   0  0  0  0  0  0  0  0  0  0  0  0
   25.7280   -1.5128   -9.5452 C   0  0  0  0  0  0  0  0  0  0  0  0
   26.7326   -1.6290   -8.6161 C   0  0  0  0  0  0  0  0  0  0  0  0
   26.9367   -2.7494   -7.8944 F   0  0  0  0  0  0  0  0  0  0  0  0
   27.5779   -0.5736   -8.3946 C   0  0  0  0  0  0  0  0  0  0  0  0
   27.4014    0.5898   -9.1132 C   0  0  0  0  0  0  0  0  0  0  0  0
   28.2808    1.6951   -8.8812 C   0  0  0  0  0  0  0  0  0  0  0  0
   28.9923    2.6042   -8.7088 N   0  0  0  0  0  0  0  0  0  0  0  0
   26.3671    0.6776  -10.0545 C   0  0  0  0  0  0  0  0  0  0  0  0
   22.1959   -0.7576  -10.5504 C   0  0  0  0  0  0  0  0  0  0  0  0
  1  2  1  6
  2  3  1  1
  4  3  1  1
  4  5  1  0
  5  6  1  6
  6  7  1  1
  7  8  1  6
  8  9  1  0
  9 10  2  0
 10 11  1  0
 11 12  1  0
 11 13  2  0
 13 14  1  0
 14 15  1  0
 15 16  3  0
 14 17  2  0
 18  7  1  1
 18  4  1  0
 17  9  1  0
M  END
$$$$
