_rank9
     RDKit          3D

 18 19  0  0  0  0  0  0  0  0999 V2000
   17.3320   -0.1972   -9.2464 C   0  0  0  0  0  0  0  0  0  0  0  0
   18.4988    0.0701  -10.1421 C   0  0  0  0  0  0  0  0  0  0  0  0
   19.7089   -0.5823   -9.8070 N   0  0  0  0  0  0  0  0  0  0  0  0
   20.8862   -0.2408  -10.4863 C   0  0  1  0  0  0  0  0  0  0  0  0
   21.8636    0.5860   -9.6769 C   0  0  0  0  0  0  0  0  0  0  0  0
   22.9964    0.7379  -10.6764 C   0  0  0  0  0  0  0  0  0  0  0  0
   22.9344   -0.5119  -11.5708 C   0  0  1  0  0  0  0  0  0  0  0  0
   24.1165   -1.2191  -11.5520 O   0  0  0  0  0  0  0  0  0  0  0  0
   25.3697   -0.7667  -11.2034 C   0  0  0  0  0  0  0  0  0  0  0  0
   26.3034   -0.4000  -12.1622 C   0  0  0  0  0  0  0  0  0  0  0  0
   27.5639    0.0555  -11.8633 C   0  0  0  0  0  0  0  0  0  0  0  0
   28.4587    0.4076  -12.8084 F   0  0  0  0  0  0  0  0  0  0  0  0
   27.9533    0.1658  -10.5542 C   0  0  0  0  0  0  0  0  0  0  0  0
   27.0664   -0.1848   -9.5585 C   0  0  0  0  0  0  0  0  0  0  0  0
   27.4718   -0.0739   -8.1902 C   0  0  0  0  0  0  0  0  0  0  0  0
   27.7852    0.0097   -7.0689 N   0  0  0  0  0  0  0  0  0  0  0  0
   25.7869   -0.6461   -9.8954 C   0  0  0  0  0  0  0  0  0  0  0  0
   21.7596   -1.3284  -10.9956 C   0  0  0  0  0  0  0  0  0  0  0  0
  1  2  1  6
  2  3  1  1
  4  3  1  1
  4  5  1  0
  5  6  1  6
  6  7  1  1
  7  8  1  1
  8  9  1  0
  9 10  2  0
 10 11  1  0
 11 12  1  0
 11 13  2  0
 13 14  1  0
 14 15  1  0
 15 16  3  0
 14 17  2  0
 18  7  1  1
 18  4  1  0
 17  9  1  0
M  END
$$$$
