_rank15
     RDKit          3D

 18 19  0  0  0  0  0  0  0  0999 V2000
   19.2942   -0.6943   -8.9441 C   0  0  0  0  0  0  0  0  0  0  0  0
   19.1951   -0.5101  -10.4244 C   0  0  0  0  0  0  0  0  0  0  0  0
   19.7042   -1.5617  -11.2226 N   0  0  0  0  0  0  0  0  0  0  0  0
   21.0584   -1.5586  -11.5835 C   0  0  1  0  0  0  0  0  0  0  0  0
   21.3891   -0.6941  -12.7824 C   0  0  0  0  0  0  0  0  0  0  0  0
   22.8918   -0.8944  -12.8659 C   0  0  0  0  0  0  0  0  0  0  0  0
   23.3555   -1.1794  -11.4273 C   0  0  1  0  0  0  0  0  0  0  0  0
   24.3063   -0.2772  -11.0032 O   0  0  0  0  0  0  0  0  0  0  0  0
   25.3483   -0.4919  -10.1287 C   0  0  0  0  0  0  0  0  0  0  0  0
   25.6166   -1.7516   -9.6122 C   0  0  0  0  0  0  0  0  0  0  0  0
   26.6424   -2.0139   -8.7378 C   0  0  0  0  0  0  0  0  0  0  0  0
   26.8886   -3.2449   -8.2457 F   0  0  0  0  0  0  0  0  0  0  0  0
   27.4659   -0.9967   -8.3323 C   0  0  0  0  0  0  0  0  0  0  0  0
   27.2464    0.2766   -8.8134 C   0  0  0  0  0  0  0  0  0  0  0  0
   28.1029    1.3419   -8.3888 C   0  0  0  0  0  0  0  0  0  0  0  0
   28.7893    2.2143   -8.0279 N   0  0  0  0  0  0  0  0  0  0  0  0
   26.1913    0.5127   -9.7048 C   0  0  0  0  0  0  0  0  0  0  0  0
   22.0622   -1.0964  -10.5917 C   0  0  0  0  0  0  0  0  0  0  0  0
  1  2  1  6
  2  3  1  1
  4  3  1  1
  4  5  1  0
  5  6  1  6
  6  7  1  1
  7  8  1  1
  8  9  1  0
  9 10  2  0
 10 11  1  0
 11 12  1  0
 11 13  2  0
 13 14  1  0
 14 15  1  0
 15 16  3  0
 14 17  2  0
 18  7  1  1
 18  4  1  0
 17  9  1  0
M  END
$$$$
