_rank16
     RDKit          3D

 18 19  0  0  0  0  0  0  0  0999 V2000
   18.0201   -2.5887  -13.7216 C   0  0  0  0  0  0  0  0  0  0  0  0
   19.2531   -2.1428  -13.0033 C   0  0  0  0  0  0  0  0  0  0  0  0
   19.1267   -1.9370  -11.6091 N   0  0  0  0  0  0  0  0  0  0  0  0
   20.2133   -1.4243  -10.8875 C   0  0  1  0  0  0  0  0  0  0  0  0
   20.7843   -2.3699   -9.8514 C   0  0  0  0  0  0  0  0  0  0  0  0
   21.9255   -1.5304   -9.3051 C   0  0  0  0  0  0  0  0  0  0  0  0
   22.3589   -0.6126  -10.4607 C   0  0  1  0  0  0  0  0  0  0  0  0
   23.6905   -0.7730  -10.7755 O   0  0  0  0  0  0  0  0  0  0  0  0
   24.7833   -0.5855   -9.9587 C   0  0  0  0  0  0  0  0  0  0  0  0
   24.6476   -0.1266   -8.6562 C   0  0  0  0  0  0  0  0  0  0  0  0
   25.7064    0.0764   -7.8056 C   0  0  0  0  0  0  0  0  0  0  0  0
   25.5559    0.5230   -6.5424 F   0  0  0  0  0  0  0  0  0  0  0  0
   26.9819   -0.1790   -8.2362 C   0  0  0  0  0  0  0  0  0  0  0  0
   27.1770   -0.6370   -9.5219 C   0  0  0  0  0  0  0  0  0  0  0  0
   28.5086   -0.9011   -9.9756 C   0  0  0  0  0  0  0  0  0  0  0  0
   29.5882   -1.1165  -10.3638 N   0  0  0  0  0  0  0  0  0  0  0  0
   26.0762   -0.8344  -10.3662 C   0  0  0  0  0  0  0  0  0  0  0  0
   21.4337   -1.0137  -11.6272 C   0  0  0  0  0  0  0  0  0  0  0  0
  1  2  1  6
  2  3  1  1
  4  3  1  6
  4  5  1  0
  5  6  1  6
  6  7  1  1
  7  8  1  6
  8  9  1  0
  9 10  2  0
 10 11  1  0
 11 12  1  0
 11 13  2  0
 13 14  1  0
 14 15  1  0
 15 16  3  0
 14 17  2  0
 18  7  1  1
 18  4  1  0
 17  9  1  0
M  END
$$$$
