_rank7
     RDKit          3D

 18 19  0  0  0  0  0  0  0  0999 V2000
   17.2428   -3.3557  -11.3049 C   0  0  0  0  0  0  0  0  0  0  0  0
   18.5120   -2.6490  -11.6582 C   0  0  0  0  0  0  0  0  0  0  0  0
   18.8964   -1.5869  -10.8059 N   0  0  0  0  0  0  0  0  0  0  0  0
   20.1756   -1.0292  -10.9349 C   0  0  1  0  0  0  0  0  0  0  0  0
   20.4040    0.2211  -10.1111 C   0  0  0  0  0  0  0  0  0  0  0  0
   21.8516    0.5228  -10.4558 C   0  0  0  0  0  0  0  0  0  0  0  0
   22.4958   -0.8361  -10.7786 C   0  0  1  0  0  0  0  0  0  0  0  0
   23.5806   -1.0980   -9.9708 O   0  0  0  0  0  0  0  0  0  0  0  0
   24.8882   -0.7066  -10.1540 C   0  0  0  0  0  0  0  0  0  0  0  0
   25.4118   -0.4897  -11.4206 C   0  0  0  0  0  0  0  0  0  0  0  0
   26.7080   -0.1001  -11.6528 C   0  0  0  0  0  0  0  0  0  0  0  0
   27.2001    0.1062  -12.8910 F   0  0  0  0  0  0  0  0  0  0  0  0
   27.5583    0.0941  -10.5961 C   0  0  0  0  0  0  0  0  0  0  0  0
   27.0923   -0.1069   -9.3141 C   0  0  0  0  0  0  0  0  0  0  0  0
   27.9794    0.0917   -8.2085 C   0  0  0  0  0  0  0  0  0  0  0  0
   28.6886    0.2623   -7.2972 N   0  0  0  0  0  0  0  0  0  0  0  0
   25.7643   -0.5042   -9.1095 C   0  0  0  0  0  0  0  0  0  0  0  0
   21.3556   -1.8526  -10.5680 C   0  0  0  0  0  0  0  0  0  0  0  0
  1  2  1  6
  2  3  1  1
  4  3  1  1
  4  5  1  0
  5  6  1  6
  6  7  1  1
  7  8  1  1
  8  9  1  0
  9 10  2  0
 10 11  1  0
 11 12  1  0
 11 13  2  0
 13 14  1  0
 14 15  1  0
 15 16  3  0
 14 17  2  0
 18  7  1  1
 18  4  1  0
 17  9  1  0
M  END
$$$$
