_rank5
     RDKit          3D

 18 19  0  0  0  0  0  0  0  0999 V2000
   17.0260   -1.8875  -11.4680 C   0  0  0  0  0  0  0  0  0  0  0  0
   18.4278   -2.2341  -11.0808 C   0  0  0  0  0  0  0  0  0  0  0  0
   19.4496   -1.4309  -11.6402 N   0  0  0  0  0  0  0  0  0  0  0  0
   20.7705   -1.5920  -11.2004 C   0  0  1  0  0  0  0  0  0  0  0  0
   21.7809   -1.8115  -12.3071 C   0  0  0  0  0  0  0  0  0  0  0  0
   23.0633   -1.9088  -11.5001 C   0  0  0  0  0  0  0  0  0  0  0  0
   22.8291   -1.0584  -10.2401 C   0  0  1  0  0  0  0  0  0  0  0  0
   23.7687   -0.0593  -10.1098 O   0  0  0  0  0  0  0  0  0  0  0  0
   25.0498   -0.1597   -9.6146 C   0  0  0  0  0  0  0  0  0  0  0  0
   25.4953   -1.3091   -8.9775 C   0  0  0  0  0  0  0  0  0  0  0  0
   26.7619   -1.4554   -8.4673 C   0  0  0  0  0  0  0  0  0  0  0  0
   27.1779   -2.5801   -7.8510 F   0  0  0  0  0  0  0  0  0  0  0  0
   27.6609   -0.4272   -8.5769 C   0  0  0  0  0  0  0  0  0  0  0  0
   27.2731    0.7396   -9.2007 C   0  0  0  0  0  0  0  0  0  0  0  0
   28.2091    1.8166   -9.3135 C   0  0  0  0  0  0  0  0  0  0  0  0
   28.9582    2.7075   -9.4019 N   0  0  0  0  0  0  0  0  0  0  0  0
   25.9737    0.8584   -9.7113 C   0  0  0  0  0  0  0  0  0  0  0  0
   21.4052   -0.4963  -10.4247 C   0  0  0  0  0  0  0  0  0  0  0  0
  1  2  1  6
  2  3  1  1
  4  3  1  6
  4  5  1  0
  5  6  1  6
  6  7  1  1
  7  8  1  6
  8  9  1  0
  9 10  2  0
 10 11  1  0
 11 12  1  0
 11 13  2  0
 13 14  1  0
 14 15  1  0
 15 16  3  0
 14 17  2  0
 18  7  1  1
 18  4  1  0
 17  9  1  0
M  END
$$$$
