_rank10
     RDKit          3D

 18 19  0  0  0  0  0  0  0  0999 V2000
   17.7634   -2.9731  -10.3359 C   0  0  0  0  0  0  0  0  0  0  0  0
   18.6976   -2.6105  -11.4453 C   0  0  0  0  0  0  0  0  0  0  0  0
   20.0790   -2.7498  -11.1724 N   0  0  0  0  0  0  0  0  0  0  0  0
   20.9372   -1.6639  -11.3926 C   0  0  1  0  0  0  0  0  0  0  0  0
   20.3831   -0.3238  -10.9553 C   0  0  0  0  0  0  0  0  0  0  0  0
   21.5485    0.5866  -11.2992 C   0  0  0  0  0  0  0  0  0  0  0  0
   22.8091   -0.2868  -11.1822 C   0  0  1  0  0  0  0  0  0  0  0  0
   23.7128    0.2295  -10.2795 O   0  0  0  0  0  0  0  0  0  0  0  0
   25.0056   -0.1826  -10.0441 C   0  0  0  0  0  0  0  0  0  0  0  0
   25.6842   -0.9963  -10.9401 C   0  0  0  0  0  0  0  0  0  0  0  0
   26.9719   -1.4330  -10.7484 C   0  0  0  0  0  0  0  0  0  0  0  0
   27.6161   -2.2238  -11.6303 F   0  0  0  0  0  0  0  0  0  0  0  0
   27.6535   -1.0623   -9.6190 C   0  0  0  0  0  0  0  0  0  0  0  0
   27.0287   -0.2541   -8.6931 C   0  0  0  0  0  0  0  0  0  0  0  0
   27.7371    0.1317   -7.5107 C   0  0  0  0  0  0  0  0  0  0  0  0
   28.2998    0.4403   -6.5357 N   0  0  0  0  0  0  0  0  0  0  0  0
   25.7138    0.1753   -8.9173 C   0  0  0  0  0  0  0  0  0  0  0  0
   22.2731   -1.6646  -10.7442 C   0  0  0  0  0  0  0  0  0  0  0  0
  1  2  1  6
  2  3  1  1
  4  3  1  1
  4  5  1  0
  5  6  1  6
  6  7  1  1
  7  8  1  1
  8  9  1  0
  9 10  2  0
 10 11  1  0
 11 12  1  0
 11 13  2  0
 13 14  1  0
 14 15  1  0
 15 16  3  0
 14 17  2  0
 18  7  1  1
 18  4  1  0
 17  9  1  0
M  END
$$$$
