_rank2
     RDKit          3D

 22 23  0  0  0  0  0  0  0  0999 V2000
   17.6965    2.1035   -9.0591 N   0  0  0  0  0  0  0  0  0  0  0  0
   18.3632    1.4240   -9.5045 C   0  0  0  0  0  0  0  0  0  0  0  0
   19.3106    0.4690  -10.1614 C   0  0  0  0  0  0  0  0  0  0  0  0
   18.9671   -0.8704  -10.1705 C   0  0  0  0  0  0  0  0  0  0  0  0
   19.8082   -1.8434  -10.6554 C   0  0  0  0  0  0  0  0  0  0  0  0
   19.4682   -3.1480  -10.6421 F   0  0  0  0  0  0  0  0  0  0  0  0
   21.0477   -1.4214  -11.1506 C   0  0  0  0  0  0  0  0  0  0  0  0
   21.3927   -0.0940  -11.1454 C   0  0  0  0  0  0  0  0  0  0  0  0
   22.7034    0.2724  -11.5851 N   0  0  0  0  0  0  0  0  0  0  0  0
   23.8141   -0.3552  -10.9069 C   0  0  0  0  0  0  0  0  0  0  0  0
   23.6496   -0.7368   -9.7109 O   0  0  0  0  0  0  0  0  0  0  0  0
   25.0415   -0.5474  -11.5265 N   0  0  0  0  0  0  0  0  0  0  0  0
   26.2442    0.2049  -11.2223 C   0  0  2  0  0  0  0  0  0  0  0  0
   27.2046    0.0545  -12.3852 C   0  0  0  0  0  0  0  0  0  0  0  0
   26.5881    0.2871  -13.6009 O   0  0  0  0  0  0  0  0  0  0  0  0
   26.8522   -0.2708   -9.9570 C   0  0  0  0  0  0  0  0  0  0  0  0
   26.9712   -1.5720   -9.5652 C   0  0  0  0  0  0  0  0  0  0  0  0
   27.5368   -2.0336   -8.4111 C   0  0  0  0  0  0  0  0  0  0  0  0
   28.0466   -1.0716   -7.5363 C   0  0  0  0  0  0  0  0  0  0  0  0
   27.9612    0.2484   -7.8635 C   0  0  0  0  0  0  0  0  0  0  0  0
   27.3735    0.6765   -9.0585 C   0  0  0  0  0  0  0  0  0  0  0  0
   20.5080    0.8763  -10.6430 C   0  0  0  0  0  0  0  0  0  0  0  0
  1  2  3  0
  2  3  1  0
  3  4  2  0
  4  5  1  0
  5  6  1  0
  5  7  2  0
  7  8  1  0
  8  9  1  0
  9 10  1  0
 10 11  2  0
 10 12  1  0
 13 12  1  6
 13 14  1  0
 14 15  1  1
 13 16  1  0
 16 17  2  0
 17 18  1  0
 18 19  2  0
 19 20  1  0
 20 21  2  0
  8 22  2  0
 22  3  1  0
 21 16  1  0
M  END
$$$$
