_rank13
     RDKit          3D

 22 23  0  0  0  0  0  0  0  0999 V2000
   28.4347    1.4887   -7.0994 N   0  0  0  0  0  0  0  0  0  0  0  0
   28.0584    0.7671   -7.7645 C   0  0  0  0  0  0  0  0  0  0  0  0
   27.5033   -0.2660   -8.6948 C   0  0  0  0  0  0  0  0  0  0  0  0
   28.2792   -0.6365   -9.7778 C   0  0  0  0  0  0  0  0  0  0  0  0
   27.8268   -1.4989  -10.7477 C   0  0  0  0  0  0  0  0  0  0  0  0
   28.5871   -1.8382  -11.8080 F   0  0  0  0  0  0  0  0  0  0  0  0
   26.5282   -1.9994  -10.5959 C   0  0  0  0  0  0  0  0  0  0  0  0
   25.7549   -1.6364   -9.5229 C   0  0  0  0  0  0  0  0  0  0  0  0
   24.4071   -2.1106   -9.4612 N   0  0  0  0  0  0  0  0  0  0  0  0
   23.4253   -1.3756  -10.2249 C   0  0  0  0  0  0  0  0  0  0  0  0
   23.8141   -0.3784  -10.9014 O   0  0  0  0  0  0  0  0  0  0  0  0
   22.0834   -1.7313  -10.2349 N   0  0  0  0  0  0  0  0  0  0  0  0
   21.0454   -1.0091  -10.9463 C   0  0  2  0  0  0  0  0  0  0  0  0
   20.8257    0.3173  -10.2463 C   0  0  0  0  0  0  0  0  0  0  0  0
   21.7552    1.2667  -10.6295 O   0  0  0  0  0  0  0  0  0  0  0  0
   19.7959   -1.8046  -10.9968 C   0  0  0  0  0  0  0  0  0  0  0  0
   19.3197   -2.4798  -12.0822 C   0  0  0  0  0  0  0  0  0  0  0  0
   18.1787   -3.2273  -12.1486 C   0  0  0  0  0  0  0  0  0  0  0  0
   17.4155   -3.3085  -10.9818 C   0  0  0  0  0  0  0  0  0  0  0  0
   17.8313   -2.6579   -9.8590 C   0  0  0  0  0  0  0  0  0  0  0  0
   19.0090   -1.9033   -9.8360 C   0  0  0  0  0  0  0  0  0  0  0  0
   26.2491   -0.7526   -8.5475 C   0  0  0  0  0  0  0  0  0  0  0  0
  1  2  3  0
  2  3  1  0
  3  4  2  0
  4  5  1  0
  5  6  1  0
  5  7  2  0
  7  8  1  0
  8  9  1  0
  9 10  1  0
 10 11  2  0
 10 12  1  0
 13 12  1  1
 13 14  1  0
 14 15  1  1
 13 16  1  0
 16 17  2  0
 17 18  1  0
 18 19  2  0
 19 20  1  0
 20 21  2  0
  8 22  2  0
 22  3  1  0
 21 16  1  0
M  END
$$$$
