_rank16
     RDKit          3D

 22 23  0  0  0  0  0  0  0  0999 V2000
   17.2773    1.7258   -9.0004 N   0  0  0  0  0  0  0  0  0  0  0  0
   18.0129    1.1007   -9.4163 C   0  0  0  0  0  0  0  0  0  0  0  0
   19.0667    0.2293  -10.0255 C   0  0  0  0  0  0  0  0  0  0  0  0
   18.6819   -0.6280  -11.0399 C   0  0  0  0  0  0  0  0  0  0  0  0
   19.5434   -1.5415  -11.5991 C   0  0  0  0  0  0  0  0  0  0  0  0
   19.1505   -2.3839  -12.5755 F   0  0  0  0  0  0  0  0  0  0  0  0
   20.8496   -1.5720  -11.0962 C   0  0  0  0  0  0  0  0  0  0  0  0
   21.2369   -0.7227  -10.0913 C   0  0  0  0  0  0  0  0  0  0  0  0
   22.5574   -0.8537   -9.5579 N   0  0  0  0  0  0  0  0  0  0  0  0
   23.6311   -1.0014  -10.5132 C   0  0  0  0  0  0  0  0  0  0  0  0
   23.4695   -0.5281  -11.6765 O   0  0  0  0  0  0  0  0  0  0  0  0
   24.8204   -1.6412  -10.1911 N   0  0  0  0  0  0  0  0  0  0  0  0
   25.8085   -1.1241   -9.2631 C   0  0  2  0  0  0  0  0  0  0  0  0
   25.4972    0.3366   -9.0042 C   0  0  0  0  0  0  0  0  0  0  0  0
   24.7979    0.5172   -7.8250 O   0  0  0  0  0  0  0  0  0  0  0  0
   27.1765   -1.2948   -9.8074 C   0  0  0  0  0  0  0  0  0  0  0  0
   28.3029   -1.5430   -9.0793 C   0  0  0  0  0  0  0  0  0  0  0  0
   29.5698   -1.7148   -9.5595 C   0  0  0  0  0  0  0  0  0  0  0  0
   29.7313   -1.6251  -10.9438 C   0  0  0  0  0  0  0  0  0  0  0  0
   28.6484   -1.3784  -11.7332 C   0  0  0  0  0  0  0  0  0  0  0  0
   27.3672   -1.2097  -11.1977 C   0  0  0  0  0  0  0  0  0  0  0  0
   20.3304    0.2010   -9.5421 C   0  0  0  0  0  0  0  0  0  0  0  0
  1  2  3  0
  2  3  1  0
  3  4  2  0
  4  5  1  0
  5  6  1  0
  5  7  2  0
  7  8  1  0
  8  9  1  0
  9 10  1  0
 10 11  2  0
 10 12  1  0
 13 12  1  6
 13 14  1  0
 14 15  1  1
 13 16  1  0
 16 17  2  0
 17 18  1  0
 18 19  2  0
 19 20  1  0
 20 21  2  0
  8 22  2  0
 22  3  1  0
 21 16  1  0
M  END
$$$$
