_rank8
     RDKit          3D

 22 23  0  0  0  0  0  0  0  0999 V2000
   16.3510   -2.0865  -11.8271 N   0  0  0  0  0  0  0  0  0  0  0  0
   17.2869   -1.7124  -11.5291 C   0  0  0  0  0  0  0  0  0  0  0  0
   18.6259   -1.2030  -11.0948 C   0  0  0  0  0  0  0  0  0  0  0  0
   18.6629   -0.0066  -10.4026 C   0  0  0  0  0  0  0  0  0  0  0  0
   19.8425    0.6021  -10.0458 C   0  0  0  0  0  0  0  0  0  0  0  0
   19.8647    1.7777   -9.3864 F   0  0  0  0  0  0  0  0  0  0  0  0
   21.0275   -0.0461  -10.4139 C   0  0  0  0  0  0  0  0  0  0  0  0
   20.9965   -1.2338  -11.0992 C   0  0  0  0  0  0  0  0  0  0  0  0
   22.2349   -1.8097  -11.5235 N   0  0  0  0  0  0  0  0  0  0  0  0
   23.3612   -0.9124  -11.6402 C   0  0  0  0  0  0  0  0  0  0  0  0
   23.3424   -0.0410  -12.5586 O   0  0  0  0  0  0  0  0  0  0  0  0
   24.4497   -0.9814  -10.7811 N   0  0  0  0  0  0  0  0  0  0  0  0
   25.7502   -0.3980  -11.0515 C   0  0  2  0  0  0  0  0  0  0  0  0
   26.4693   -1.2838  -12.0494 C   0  0  0  0  0  0  0  0  0  0  0  0
   25.6027   -1.8268  -12.9802 O   0  0  0  0  0  0  0  0  0  0  0  0
   26.5297   -0.2552   -9.7989 C   0  0  0  0  0  0  0  0  0  0  0  0
   27.1820    0.8691   -9.3853 C   0  0  0  0  0  0  0  0  0  0  0  0
   27.8957    1.0269   -8.2317 C   0  0  0  0  0  0  0  0  0  0  0  0
   27.9680   -0.0812   -7.3846 C   0  0  0  0  0  0  0  0  0  0  0  0
   27.3399   -1.2386   -7.7352 C   0  0  0  0  0  0  0  0  0  0  0  0
   26.6182   -1.3552   -8.9278 C   0  0  0  0  0  0  0  0  0  0  0  0
   19.7720   -1.8302  -11.4478 C   0  0  0  0  0  0  0  0  0  0  0  0
  1  2  3  0
  2  3  1  0
  3  4  2  0
  4  5  1  0
  5  6  1  0
  5  7  2  0
  7  8  1  0
  8  9  1  0
  9 10  1  0
 10 11  2  0
 10 12  1  0
 13 12  1  1
 13 14  1  0
 14 15  1  1
 13 16  1  0
 16 17  2  0
 17 18  1  0
 18 19  2  0
 19 20  1  0
 20 21  2  0
  8 22  2  0
 22  3  1  0
 21 16  1  0
M  END
$$$$
