_rank20
     RDKit          3D

 22 23  0  0  0  0  0  0  0  0999 V2000
   26.4729    2.6809  -13.2383 N   0  0  0  0  0  0  0  0  0  0  0  0
   26.5028    1.8108  -12.6495 C   0  0  0  0  0  0  0  0  0  0  0  0
   26.5384    0.5575  -11.8317 C   0  0  0  0  0  0  0  0  0  0  0  0
   27.6719   -0.2300  -11.9145 C   0  0  0  0  0  0  0  0  0  0  0  0
   27.7698   -1.4489  -11.2869 C   0  0  0  0  0  0  0  0  0  0  0  0
   28.8743   -2.2151  -11.3903 F   0  0  0  0  0  0  0  0  0  0  0  0
   26.6601   -1.8716  -10.5454 C   0  0  0  0  0  0  0  0  0  0  0  0
   25.5338   -1.0937  -10.4587 C   0  0  0  0  0  0  0  0  0  0  0  0
   24.3992   -1.6109   -9.7583 N   0  0  0  0  0  0  0  0  0  0  0  0
   23.1565   -0.8911   -9.9155 C   0  0  0  0  0  0  0  0  0  0  0  0
   23.1530    0.1517  -10.6337 O   0  0  0  0  0  0  0  0  0  0  0  0
   21.9812   -1.3092   -9.3061 N   0  0  0  0  0  0  0  0  0  0  0  0
   20.7277   -0.5800   -9.3474 C   0  0  2  0  0  0  0  0  0  0  0  0
   19.9608   -0.8825   -8.0755 C   0  0  0  0  0  0  0  0  0  0  0  0
   20.6477   -0.4764   -6.9461 O   0  0  0  0  0  0  0  0  0  0  0  0
   19.9452   -0.9533  -10.5496 C   0  0  0  0  0  0  0  0  0  0  0  0
   18.9497   -0.2143  -11.1185 C   0  0  0  0  0  0  0  0  0  0  0  0
   18.2240   -0.5326  -12.2308 C   0  0  0  0  0  0  0  0  0  0  0  0
   18.5315   -1.7448  -12.8523 C   0  0  0  0  0  0  0  0  0  0  0  0
   19.5153   -2.5347  -12.3375 C   0  0  0  0  0  0  0  0  0  0  0  0
   20.2346   -2.1682  -11.1951 C   0  0  0  0  0  0  0  0  0  0  0  0
   25.4672    0.1492  -11.1124 C   0  0  0  0  0  0  0  0  0  0  0  0
  1  2  3  0
  2  3  1  0
  3  4  2  0
  4  5  1  0
  5  6  1  0
  5  7  2  0
  7  8  1  0
  8  9  1  0
  9 10  1  0
 10 11  2  0
 10 12  1  0
 13 12  1  1
 13 14  1  0
 14 15  1  1
 13 16  1  0
 16 17  2  0
 17 18  1  0
 18 19  2  0
 19 20  1  0
 20 21  2  0
  8 22  2  0
 22  3  1  0
 21 16  1  0
M  END
$$$$
