_rank11
     RDKit          3D

 21 22  0  0  0  0  0  0  0  0999 V2000
   24.9853    0.9558   -7.3741 C   0  0  0  0  0  0  0  0  0  0  0  0
   26.2008    0.0799   -8.3593 S   0  0  1  0  0  6  0  0  0  0  0  0
   27.5648    0.5236   -8.0359 O   0  0  0  0  0  0  0  0  0  0  0  0
   26.0345   -1.3898   -7.9821 O   0  0  0  0  0  0  0  0  0  0  0  0
   25.7732    0.1992  -10.0432 C   0  0  0  0  0  0  0  0  0  0  0  0
   26.7969    0.4720  -10.9466 C   0  0  0  0  0  0  0  0  0  0  0  0
   26.5972    0.6481  -12.2949 C   0  0  0  0  0  0  0  0  0  0  0  0
   27.6460    0.9259  -13.2099 N   0  0  0  0  0  4  0  0  0  0  0  0
   28.7972    0.5862  -12.9230 O   0  0  0  0  0  0  0  0  0  0  0  0
   27.4229    1.5637  -14.4111 O   0  0  0  0  0  1  0  0  0  0  0  0
   25.3009    0.5434  -12.7503 C   0  0  0  0  0  0  0  0  0  0  0  0
   24.2812    0.2745  -11.8764 C   0  0  0  0  0  0  0  0  0  0  0  0
   24.4790    0.0928  -10.5004 C   0  0  0  0  0  0  0  0  0  0  0  0
   23.4121   -0.1734   -9.6673 O   0  0  0  0  0  0  0  0  0  0  0  0
   22.0917   -0.2043   -9.9969 C   0  0  0  0  0  0  0  0  0  0  0  0
   21.6340   -1.3236  -10.7014 C   0  0  0  0  0  0  0  0  0  0  0  0
   20.3288   -1.3431  -11.0213 N   0  0  0  0  0  0  0  0  0  0  0  0
   19.4987   -0.3397  -10.6838 C   0  0  0  0  0  0  0  0  0  0  0  0
   19.9263    0.7733   -9.9897 C   0  0  0  0  0  0  0  0  0  0  0  0
   19.0387    1.7709   -9.6689 F   0  0  0  0  0  0  0  0  0  0  0  0
   21.2562    0.8404   -9.6386 C   0  0  0  0  0  0  0  0  0  0  0  0
  1  2  1  1
  2  3  2  0
  2  4  2  0
  2  5  1  6
  5  6  2  0
  6  7  1  0
  7  8  1  0
  8  9  2  0
  8 10  1  0
  7 11  2  0
 11 12  1  0
 12 13  2  0
 13 14  1  0
 14 15  1  0
 15 16  2  0
 16 17  1  0
 17 18  2  0
 18 19  1  0
 19 20  1  0
 19 21  2  0
 13  5  1  0
 21 15  1  0
M  CHG  2   8   1  10  -1
M  END
$$$$
