_rank4
     RDKit          3D

 21 22  0  0  0  0  0  0  0  0999 V2000
   25.4551    2.2480  -13.0047 C   0  0  0  0  0  0  0  0  0  0  0  0
   26.0358    0.6075  -12.5726 S   0  0  1  0  0  6  0  0  0  0  0  0
   25.4723   -0.4088  -13.4735 O   0  0  0  0  0  0  0  0  0  0  0  0
   27.5516    0.6639  -12.7442 O   0  0  0  0  0  0  0  0  0  0  0  0
   25.7504    0.3218  -10.8787 C   0  0  0  0  0  0  0  0  0  0  0  0
   26.8620    0.2639  -10.0423 C   0  0  0  0  0  0  0  0  0  0  0  0
   26.7907   -0.0092   -8.6973 C   0  0  0  0  0  0  0  0  0  0  0  0
   27.9286   -0.0666   -7.8508 N   0  0  0  0  0  4  0  0  0  0  0  0
   27.7692   -0.2848   -6.6466 O   0  0  0  0  0  0  0  0  0  0  0  0
   29.2088    0.1134   -8.3282 O   0  0  0  0  0  1  0  0  0  0  0  0
   25.5359   -0.2342   -8.1741 C   0  0  0  0  0  0  0  0  0  0  0  0
   24.4309   -0.1803   -8.9815 C   0  0  0  0  0  0  0  0  0  0  0  0
   24.4974    0.0989  -10.3538 C   0  0  0  0  0  0  0  0  0  0  0  0
   23.3496    0.1374  -11.1183 O   0  0  0  0  0  0  0  0  0  0  0  0
   22.0898   -0.2115  -10.7388 C   0  0  0  0  0  0  0  0  0  0  0  0
   21.8057   -1.5786  -10.6436 C   0  0  0  0  0  0  0  0  0  0  0  0
   20.5588   -1.9111  -10.2681 N   0  0  0  0  0  0  0  0  0  0  0  0
   19.6259   -0.9807   -9.9960 C   0  0  0  0  0  0  0  0  0  0  0  0
   19.8822    0.3721  -10.0828 C   0  0  0  0  0  0  0  0  0  0  0  0
   18.8950    1.2824   -9.7944 F   0  0  0  0  0  0  0  0  0  0  0  0
   21.1461    0.7640  -10.4639 C   0  0  0  0  0  0  0  0  0  0  0  0
  1  2  1  1
  2  3  2  0
  2  4  2  0
  2  5  1  1
  5  6  2  0
  6  7  1  0
  7  8  1  0
  8  9  2  0
  8 10  1  0
  7 11  2  0
 11 12  1  0
 12 13  2  0
 13 14  1  0
 14 15  1  0
 15 16  2  0
 16 17  1  0
 17 18  2  0
 18 19  1  0
 19 20  1  0
 19 21  2  0
 13  5  1  0
 21 15  1  0
M  CHG  2   8   1  10  -1
M  END
$$$$
