_rank10
     RDKit          3D

 21 22  0  0  0  0  0  0  0  0999 V2000
   25.6695   -0.7415  -13.3403 C   0  0  0  0  0  0  0  0  0  0  0  0
   26.1878    0.7121  -12.4272 S   0  0  1  0  0  6  0  0  0  0  0  0
   27.5561    1.1076  -12.7925 O   0  0  0  0  0  0  0  0  0  0  0  0
   25.2083    1.8091  -12.8361 O   0  0  0  0  0  0  0  0  0  0  0  0
   25.9336    0.4455  -10.7253 C   0  0  0  0  0  0  0  0  0  0  0  0
   27.0596    0.2309   -9.9350 C   0  0  0  0  0  0  0  0  0  0  0  0
   27.0056   -0.0472   -8.5901 C   0  0  0  0  0  0  0  0  0  0  0  0
   28.1581   -0.2648   -7.7908 N   0  0  0  0  0  4  0  0  0  0  0  0
   28.1407    0.0833   -6.6070 O   0  0  0  0  0  0  0  0  0  0  0  0
   29.2991   -0.8531   -8.2922 O   0  0  0  0  0  1  0  0  0  0  0  0
   25.7535   -0.1110   -8.0183 C   0  0  0  0  0  0  0  0  0  0  0  0
   24.6346    0.0984   -8.7798 C   0  0  0  0  0  0  0  0  0  0  0  0
   24.6836    0.3835  -10.1516 C   0  0  0  0  0  0  0  0  0  0  0  0
   23.5220    0.5826  -10.8687 O   0  0  0  0  0  0  0  0  0  0  0  0
   22.2936    0.0518  -10.6195 C   0  0  0  0  0  0  0  0  0  0  0  0
   21.1826    0.8666  -10.8650 C   0  0  0  0  0  0  0  0  0  0  0  0
   19.9751    0.3319  -10.6153 N   0  0  0  0  0  0  0  0  0  0  0  0
   19.8350   -0.9235  -10.1525 C   0  0  0  0  0  0  0  0  0  0  0  0
   20.9146   -1.7454   -9.9030 C   0  0  0  0  0  0  0  0  0  0  0  0
   20.7183   -3.0199   -9.4306 F   0  0  0  0  0  0  0  0  0  0  0  0
   22.1742   -1.2431  -10.1432 C   0  0  0  0  0  0  0  0  0  0  0  0
  1  2  1  1
  2  3  2  0
  2  4  2  0
  2  5  1  1
  5  6  2  0
  6  7  1  0
  7  8  1  0
  8  9  2  0
  8 10  1  0
  7 11  2  0
 11 12  1  0
 12 13  2  0
 13 14  1  0
 14 15  1  0
 15 16  2  0
 16 17  1  0
 17 18  2  0
 18 19  1  0
 19 20  1  0
 19 21  2  0
 13  5  1  0
 21 15  1  0
M  CHG  2   8   1  10  -1
M  END
$$$$
