_rank15
     RDKit          3D

 21 22  0  0  0  0  0  0  0  0999 V2000
   25.4498   -0.1665   -7.4522 C   0  0  0  0  0  0  0  0  0  0  0  0
   26.7503    0.4855   -8.5006 S   0  0  1  0  0  6  0  0  0  0  0  0
   27.0197    1.8982   -8.1946 O   0  0  0  0  0  0  0  0  0  0  0  0
   27.9822   -0.3555   -8.1761 O   0  0  0  0  0  0  0  0  0  0  0  0
   26.3661    0.1589  -10.1674 C   0  0  0  0  0  0  0  0  0  0  0  0
   27.3637    0.3867  -11.1115 C   0  0  0  0  0  0  0  0  0  0  0  0
   27.1841    0.2257  -12.4645 C   0  0  0  0  0  0  0  0  0  0  0  0
   28.2061    0.4599  -13.4212 N   0  0  0  0  0  4  0  0  0  0  0  0
   27.9392    0.3534  -14.6214 O   0  0  0  0  0  0  0  0  0  0  0  0
   29.4898    0.8030  -13.0554 O   0  0  0  0  0  1  0  0  0  0  0  0
   25.9366   -0.1849  -12.8816 C   0  0  0  0  0  0  0  0  0  0  0  0
   24.9434   -0.4148  -11.9672 C   0  0  0  0  0  0  0  0  0  0  0  0
   25.1211   -0.2535  -10.5859 C   0  0  0  0  0  0  0  0  0  0  0  0
   24.0821   -0.4975   -9.7116 O   0  0  0  0  0  0  0  0  0  0  0  0
   22.7602   -0.6231  -10.0109 C   0  0  0  0  0  0  0  0  0  0  0  0
   22.0105   -1.5150   -9.2356 C   0  0  0  0  0  0  0  0  0  0  0  0
   20.7066   -1.6308   -9.5402 N   0  0  0  0  0  0  0  0  0  0  0  0
   20.1444   -0.9270  -10.5394 C   0  0  0  0  0  0  0  0  0  0  0  0
   20.8625   -0.0422  -11.3170 C   0  0  0  0  0  0  0  0  0  0  0  0
   20.2415    0.6528  -12.3258 F   0  0  0  0  0  0  0  0  0  0  0  0
   22.2034    0.1119  -11.0442 C   0  0  0  0  0  0  0  0  0  0  0  0
  1  2  1  1
  2  3  2  0
  2  4  2  0
  2  5  1  6
  5  6  2  0
  6  7  1  0
  7  8  1  0
  8  9  2  0
  8 10  1  0
  7 11  2  0
 11 12  1  0
 12 13  2  0
 13 14  1  0
 14 15  1  0
 15 16  2  0
 16 17  1  0
 17 18  2  0
 18 19  1  0
 19 20  1  0
 19 21  2  0
 13  5  1  0
 21 15  1  0
M  CHG  2   8   1  10  -1
M  END
$$$$
