_rank1
     RDKit          3D

 21 22  0  0  0  0  0  0  0  0999 V2000
   27.4652    0.4979  -12.9948 C   0  0  0  0  0  0  0  0  0  0  0  0
   25.7248    0.6386  -12.5870 S   0  0  1  0  0  6  0  0  0  0  0  0
   25.1738    1.9209  -13.0496 O   0  0  0  0  0  0  0  0  0  0  0  0
   25.0478   -0.5105  -13.3296 O   0  0  0  0  0  0  0  0  0  0  0  0
   25.5018    0.3167  -10.8902 C   0  0  0  0  0  0  0  0  0  0  0  0
   26.6387    0.2978  -10.0867 C   0  0  0  0  0  0  0  0  0  0  0  0
   26.6190    0.0031   -8.7444 C   0  0  0  0  0  0  0  0  0  0  0  0
   27.7823   -0.0141   -7.9315 N   0  0  0  0  0  4  0  0  0  0  0  0
   27.7073   -0.4710   -6.7876 O   0  0  0  0  0  0  0  0  0  0  0  0
   28.9963    0.4632   -8.3765 O   0  0  0  0  0  1  0  0  0  0  0  0
   25.3913   -0.2860   -8.1894 C   0  0  0  0  0  0  0  0  0  0  0  0
   24.2620   -0.2713   -8.9641 C   0  0  0  0  0  0  0  0  0  0  0  0
   24.2759    0.0297  -10.3333 C   0  0  0  0  0  0  0  0  0  0  0  0
   23.1059    0.0264  -11.0642 O   0  0  0  0  0  0  0  0  0  0  0  0
   21.8557   -0.2847  -10.6247 C   0  0  0  0  0  0  0  0  0  0  0  0
   21.5113   -1.6404  -10.5823 C   0  0  0  0  0  0  0  0  0  0  0  0
   20.2745   -1.9356  -10.1467 N   0  0  0  0  0  0  0  0  0  0  0  0
   19.4066   -0.9797   -9.7688 C   0  0  0  0  0  0  0  0  0  0  0  0
   19.7230    0.3627   -9.8018 C   0  0  0  0  0  0  0  0  0  0  0  0
   18.8009    1.3000   -9.4052 F   0  0  0  0  0  0  0  0  0  0  0  0
   20.9793    0.7166  -10.2409 C   0  0  0  0  0  0  0  0  0  0  0  0
  1  2  1  1
  2  3  2  0
  2  4  2  0
  2  5  1  1
  5  6  2  0
  6  7  1  0
  7  8  1  0
  8  9  2  0
  8 10  1  0
  7 11  2  0
 11 12  1  0
 12 13  2  0
 13 14  1  0
 14 15  1  0
 15 16  2  0
 16 17  1  0
 17 18  2  0
 18 19  1  0
 19 20  1  0
 19 21  2  0
 13  5  1  0
 21 15  1  0
M  CHG  2   8   1  10  -1
M  END
$$$$
