_rank8
     RDKit          3D

 21 22  0  0  0  0  0  0  0  0999 V2000
   24.6553   -0.4276  -13.4869 C   0  0  0  0  0  0  0  0  0  0  0  0
   25.9359    0.3975  -12.5411 S   0  0  1  0  0  6  0  0  0  0  0  0
   27.2742    0.0230  -13.0214 O   0  0  0  0  0  0  0  0  0  0  0  0
   25.7041    1.8882  -12.7733 O   0  0  0  0  0  0  0  0  0  0  0  0
   25.6658    0.1241  -10.8427 C   0  0  0  0  0  0  0  0  0  0  0  0
   26.7727    0.1824  -10.0001 C   0  0  0  0  0  0  0  0  0  0  0  0
   26.7171   -0.0670   -8.6498 C   0  0  0  0  0  0  0  0  0  0  0  0
   27.8501   -0.0055   -7.7970 N   0  0  0  0  0  4  0  0  0  0  0  0
   28.8726    0.5567   -8.1987 O   0  0  0  0  0  0  0  0  0  0  0  0
   27.8480   -0.5534   -6.5324 O   0  0  0  0  0  1  0  0  0  0  0  0
   25.4837   -0.3907   -8.1276 C   0  0  0  0  0  0  0  0  0  0  0  0
   24.3835   -0.4519   -8.9409 C   0  0  0  0  0  0  0  0  0  0  0  0
   24.4340   -0.1974  -10.3187 C   0  0  0  0  0  0  0  0  0  0  0  0
   23.2923   -0.2768  -11.0890 O   0  0  0  0  0  0  0  0  0  0  0  0
   22.0143   -0.4630  -10.6589 C   0  0  0  0  0  0  0  0  0  0  0  0
   21.4811   -1.7516  -10.7760 C   0  0  0  0  0  0  0  0  0  0  0  0
   20.2186   -1.9236  -10.3481 N   0  0  0  0  0  0  0  0  0  0  0  0
   19.4985   -0.9112   -9.8321 C   0  0  0  0  0  0  0  0  0  0  0  0
   20.0022    0.3670   -9.7065 C   0  0  0  0  0  0  0  0  0  0  0  0
   19.2259    1.3664   -9.1728 F   0  0  0  0  0  0  0  0  0  0  0  0
   21.2923    0.5943  -10.1312 C   0  0  0  0  0  0  0  0  0  0  0  0
  1  2  1  1
  2  3  2  0
  2  4  2  0
  2  5  1  1
  5  6  2  0
  6  7  1  0
  7  8  1  0
  8  9  2  0
  8 10  1  0
  7 11  2  0
 11 12  1  0
 12 13  2  0
 13 14  1  0
 14 15  1  0
 15 16  2  0
 16 17  1  0
 17 18  2  0
 18 19  1  0
 19 20  1  0
 19 21  2  0
 13  5  1  0
 21 15  1  0
M  CHG  2   8   1  10  -1
M  END
$$$$
