_rank5
     RDKit          3D

 21 22  0  0  0  0  0  0  0  0999 V2000
   25.4901    1.7052  -13.3803 C   0  0  0  0  0  0  0  0  0  0  0  0
   26.2423    0.2273  -12.6981 S   0  0  1  0  0  6  0  0  0  0  0  0
   25.8344   -0.9698  -13.4483 O   0  0  0  0  0  0  0  0  0  0  0  0
   27.7462    0.4409  -12.8477 O   0  0  0  0  0  0  0  0  0  0  0  0
   25.9306    0.1587  -10.9863 C   0  0  0  0  0  0  0  0  0  0  0  0
   27.0300    0.1959  -10.1327 C   0  0  0  0  0  0  0  0  0  0  0  0
   26.9373    0.0941   -8.7652 C   0  0  0  0  0  0  0  0  0  0  0  0
   28.0628    0.1330   -7.9013 N   0  0  0  0  0  4  0  0  0  0  0  0
   27.9037   -0.0963   -6.6992 O   0  0  0  0  0  0  0  0  0  0  0  0
   29.3308    0.4186   -8.3596 O   0  0  0  0  0  1  0  0  0  0  0  0
   25.6731   -0.0522   -8.2368 C   0  0  0  0  0  0  0  0  0  0  0  0
   24.5800   -0.0898   -9.0610 C   0  0  0  0  0  0  0  0  0  0  0  0
   24.6682    0.0146  -10.4563 C   0  0  0  0  0  0  0  0  0  0  0  0
   23.5315   -0.0326  -11.2366 O   0  0  0  0  0  0  0  0  0  0  0  0
   22.2560   -0.2761  -10.8281 C   0  0  0  0  0  0  0  0  0  0  0  0
   21.5210    0.8114  -10.3426 C   0  0  0  0  0  0  0  0  0  0  0  0
   20.2631    0.5591   -9.9421 N   0  0  0  0  0  0  0  0  0  0  0  0
   19.7315   -0.6753  -10.0025 C   0  0  0  0  0  0  0  0  0  0  0  0
   20.4361   -1.7624  -10.4770 C   0  0  0  0  0  0  0  0  0  0  0  0
   19.8478   -3.0027  -10.5182 F   0  0  0  0  0  0  0  0  0  0  0  0
   21.7302   -1.5553  -10.8997 C   0  0  0  0  0  0  0  0  0  0  0  0
  1  2  1  1
  2  3  2  0
  2  4  2  0
  2  5  1  1
  5  6  2  0
  6  7  1  0
  7  8  1  0
  8  9  2  0
  8 10  1  0
  7 11  2  0
 11 12  1  0
 12 13  2  0
 13 14  1  0
 14 15  1  0
 15 16  2  0
 16 17  1  0
 17 18  2  0
 18 19  1  0
 19 20  1  0
 19 21  2  0
 13  5  1  0
 21 15  1  0
M  CHG  2   8   1  10  -1
M  END
$$$$
