_rank19
     RDKit          3D

 21 22  0  0  0  0  0  0  0  0999 V2000
   27.6647    0.4151   -8.8871 C   0  0  0  0  0  0  0  0  0  0  0  0
   25.9228    0.1531   -8.5519 S   0  0  1  0  0  6  0  0  0  0  0  0
   25.7282   -0.5475   -7.2739 O   0  0  0  0  0  0  0  0  0  0  0  0
   25.3186    1.5524   -8.4690 O   0  0  0  0  0  0  0  0  0  0  0  0
   25.1796   -0.6146   -9.9269 C   0  0  0  0  0  0  0  0  0  0  0  0
   26.0239   -1.1402  -10.9014 C   0  0  0  0  0  0  0  0  0  0  0  0
   25.5775   -1.7229  -12.0633 C   0  0  0  0  0  0  0  0  0  0  0  0
   26.4444   -2.2567  -13.0523 N   0  0  0  0  0  4  0  0  0  0  0  0
   25.9570   -2.7535  -14.0713 O   0  0  0  0  0  0  0  0  0  0  0  0
   27.8155   -2.2395  -12.9137 O   0  0  0  0  0  1  0  0  0  0  0  0
   24.2130   -1.7762  -12.2478 C   0  0  0  0  0  0  0  0  0  0  0  0
   23.3671   -1.2652  -11.2996 C   0  0  0  0  0  0  0  0  0  0  0  0
   23.8166   -0.6708  -10.1121 C   0  0  0  0  0  0  0  0  0  0  0  0
   22.9168   -0.1703   -9.1937 O   0  0  0  0  0  0  0  0  0  0  0  0
   21.6818    0.3457   -9.4409 C   0  0  0  0  0  0  0  0  0  0  0  0
   21.5738    1.2776  -10.4794 C   0  0  0  0  0  0  0  0  0  0  0  0
   20.3497    1.7803  -10.7144 N   0  0  0  0  0  0  0  0  0  0  0  0
   19.2778    1.4100   -9.9907 C   0  0  0  0  0  0  0  0  0  0  0  0
   19.3593    0.4935   -8.9626 C   0  0  0  0  0  0  0  0  0  0  0  0
   18.2348    0.1487   -8.2535 F   0  0  0  0  0  0  0  0  0  0  0  0
   20.5929   -0.0507   -8.6827 C   0  0  0  0  0  0  0  0  0  0  0  0
  1  2  1  1
  2  3  2  0
  2  4  2  0
  2  5  1  6
  5  6  2  0
  6  7  1  0
  7  8  1  0
  8  9  2  0
  8 10  1  0
  7 11  2  0
 11 12  1  0
 12 13  2  0
 13 14  1  0
 14 15  1  0
 15 16  2  0
 16 17  1  0
 17 18  2  0
 18 19  1  0
 19 20  1  0
 19 21  2  0
 13  5  1  0
 21 15  1  0
M  CHG  2   8   1  10  -1
M  END
$$$$
