_rank9
     RDKit          3D

 21 22  0  0  0  0  0  0  0  0999 V2000
   25.7112    1.9905  -12.9381 C   0  0  0  0  0  0  0  0  0  0  0  0
   25.8618    0.2337  -12.6116 S   0  0  1  0  0  6  0  0  0  0  0  0
   24.9333   -0.5422  -13.4471 O   0  0  0  0  0  0  0  0  0  0  0  0
   27.3011   -0.1174  -12.9790 O   0  0  0  0  0  0  0  0  0  0  0  0
   25.7158   -0.0497  -10.8997 C   0  0  0  0  0  0  0  0  0  0  0  0
   26.8346    0.2035  -10.1105 C   0  0  0  0  0  0  0  0  0  0  0  0
   26.8807   -0.0274   -8.7565 C   0  0  0  0  0  0  0  0  0  0  0  0
   28.0250    0.2333   -7.9584 N   0  0  0  0  0  4  0  0  0  0  0  0
   28.7989    1.1332   -8.2963 O   0  0  0  0  0  0  0  0  0  0  0  0
   28.3028   -0.4857   -6.8159 O   0  0  0  0  0  1  0  0  0  0  0  0
   25.7414   -0.5386   -8.1738 C   0  0  0  0  0  0  0  0  0  0  0  0
   24.6310   -0.7930   -8.9342 C   0  0  0  0  0  0  0  0  0  0  0  0
   24.5778   -0.5583  -10.3153 C   0  0  0  0  0  0  0  0  0  0  0  0
   23.4314   -0.8367  -11.0306 O   0  0  0  0  0  0  0  0  0  0  0  0
   22.1452   -0.5803  -10.6662 C   0  0  0  0  0  0  0  0  0  0  0  0
   21.8857    0.6544  -10.0607 C   0  0  0  0  0  0  0  0  0  0  0  0
   20.6124    0.8965   -9.7052 N   0  0  0  0  0  0  0  0  0  0  0  0
   19.6318    0.0004   -9.9183 C   0  0  0  0  0  0  0  0  0  0  0  0
   19.8630   -1.2227  -10.5132 C   0  0  0  0  0  0  0  0  0  0  0  0
   18.8271   -2.1030  -10.7085 F   0  0  0  0  0  0  0  0  0  0  0  0
   21.1524   -1.5182  -10.8957 C   0  0  0  0  0  0  0  0  0  0  0  0
  1  2  1  1
  2  3  2  0
  2  4  2  0
  2  5  1  1
  5  6  2  0
  6  7  1  0
  7  8  1  0
  8  9  2  0
  8 10  1  0
  7 11  2  0
 11 12  1  0
 12 13  2  0
 13 14  1  0
 14 15  1  0
 15 16  2  0
 16 17  1  0
 17 18  2  0
 18 19  1  0
 19 20  1  0
 19 21  2  0
 13  5  1  0
 21 15  1  0
M  CHG  2   8   1  10  -1
M  END
$$$$
