_rank13
     RDKit          3D

 22 23  0  0  0  0  0  0  0  0999 V2000
   28.0546    0.6410  -13.1802 C   0  0  0  0  0  0  0  0  0  0  0  0
   26.5965    0.2740  -12.3001 S   0  0  2  0  0  6  0  0  0  0  0  0
   26.0120   -1.0189  -12.8715 O   0  0  0  0  0  0  0  0  0  0  0  0
   25.4897    1.2970  -12.5688 O   0  0  0  0  0  0  0  0  0  0  0  0
   26.7633    0.1073  -10.5975 C   0  0  0  0  0  0  0  0  0  0  0  0
   28.0548    0.1106  -10.0568 C   0  0  0  0  0  0  0  0  0  0  0  0
   28.2462   -0.0085   -8.6934 C   0  0  0  0  0  0  0  0  0  0  0  0
   27.1793   -0.1333   -7.8286 C   0  0  0  0  0  0  0  0  0  0  0  0
   25.9553   -0.1346   -8.3636 N   0  0  0  0  0  0  0  0  0  0  0  0
   25.7428   -0.0174   -9.7189 C   0  0  0  0  0  0  0  0  0  0  0  0
   24.3687   -0.0457  -10.1842 C   0  0  0  0  0  0  0  0  0  0  0  0
   23.6827    0.9774  -10.1193 O   0  0  0  0  0  0  0  0  0  0  0  0
   23.7785   -1.2220  -10.7177 N   0  0  0  0  0  0  0  0  0  0  0  0
   22.4548   -1.2923  -11.2432 C   0  0  0  0  0  0  0  0  0  0  0  0
   22.2410   -1.0772  -12.5928 C   0  0  0  0  0  0  0  0  0  0  0  0
   20.9517   -1.1507  -13.0728 C   0  0  0  0  0  0  0  0  0  0  0  0
   20.7376   -0.9416  -14.3875 F   0  0  0  0  0  0  0  0  0  0  0  0
   19.8753   -1.4336  -12.2350 C   0  0  0  0  0  0  0  0  0  0  0  0
   20.0849   -1.6481  -10.8927 C   0  0  0  0  0  0  0  0  0  0  0  0
   18.9531   -1.9411  -10.0476 C   0  0  0  0  0  0  0  0  0  0  0  0
   18.0287   -2.1606   -9.3691 N   0  0  0  0  0  0  0  0  0  0  0  0
   21.3721   -1.5730  -10.4230 C   0  0  0  0  0  0  0  0  0  0  0  0
  1  2  1  1
  2  3  2  0
  2  4  2  0
  2  5  1  1
  5  6  2  0
  6  7  1  0
  7  8  2  0
  8  9  1  0
  9 10  2  0
 10 11  1  0
 11 12  2  0
 11 13  1  0
 13 14  1  0
 14 15  2  0
 15 16  1  0
 16 17  1  0
 16 18  2  0
 18 19  1  0
 19 20  1  0
 20 21  3  0
 19 22  2  0
 10  5  1  0
 22 14  1  0
M  END
$$$$
