_rank16
     RDKit          3D

 22 23  0  0  0  0  0  0  0  0999 V2000
   27.2844    1.2598  -11.1913 C   0  0  0  0  0  0  0  0  0  0  0  0
   26.9117    0.5072   -9.6650 S   0  0  2  0  0  6  0  0  0  0  0  0
   25.6285    1.1415   -9.1259 O   0  0  0  0  0  0  0  0  0  0  0  0
   27.9422    0.8524   -8.5867 O   0  0  0  0  0  0  0  0  0  0  0  0
   26.7225   -1.2010   -9.6909 C   0  0  0  0  0  0  0  0  0  0  0  0
   27.8676   -1.9947   -9.5529 C   0  0  0  0  0  0  0  0  0  0  0  0
   27.7718   -3.3732   -9.5550 C   0  0  0  0  0  0  0  0  0  0  0  0
   26.5543   -4.0063   -9.6921 C   0  0  0  0  0  0  0  0  0  0  0  0
   25.4737   -3.2320   -9.8228 N   0  0  0  0  0  0  0  0  0  0  0  0
   25.5474   -1.8571   -9.8235 C   0  0  0  0  0  0  0  0  0  0  0  0
   24.3070   -1.1221   -9.9868 C   0  0  0  0  0  0  0  0  0  0  0  0
   24.2585   -0.1779  -10.7791 O   0  0  0  0  0  0  0  0  0  0  0  0
   23.1336   -1.4543   -9.2592 N   0  0  0  0  0  0  0  0  0  0  0  0
   21.8194   -1.0272   -9.6110 C   0  0  0  0  0  0  0  0  0  0  0  0
   20.8372   -1.9683   -9.8620 C   0  0  0  0  0  0  0  0  0  0  0  0
   19.5768   -1.5269  -10.2004 C   0  0  0  0  0  0  0  0  0  0  0  0
   18.6157   -2.4401  -10.4466 F   0  0  0  0  0  0  0  0  0  0  0  0
   19.2784   -0.1693  -10.2928 C   0  0  0  0  0  0  0  0  0  0  0  0
   20.2529    0.7686  -10.0435 C   0  0  0  0  0  0  0  0  0  0  0  0
   19.9170    2.1679  -10.1442 C   0  0  0  0  0  0  0  0  0  0  0  0
   19.6649    3.3051  -10.2245 N   0  0  0  0  0  0  0  0  0  0  0  0
   21.5055    0.3204   -9.7072 C   0  0  0  0  0  0  0  0  0  0  0  0
  1  2  1  1
  2  3  2  0
  2  4  2  0
  2  5  1  6
  5  6  2  0
  6  7  1  0
  7  8  2  0
  8  9  1  0
  9 10  2  0
 10 11  1  0
 11 12  2  0
 11 13  1  0
 13 14  1  0
 14 15  2  0
 15 16  1  0
 16 17  1  0
 16 18  2  0
 18 19  1  0
 19 20  1  0
 20 21  3  0
 19 22  2  0
 10  5  1  0
 22 14  1  0
M  END
$$$$
