_rank3
     RDKit          3D

 22 23  0  0  0  0  0  0  0  0999 V2000
   27.0445   -1.3013  -12.8872 C   0  0  0  0  0  0  0  0  0  0  0  0
   27.1893    0.1850  -11.9899 S   0  0  2  0  0  6  0  0  0  0  0  0
   26.2373    1.2077  -12.6123 O   0  0  0  0  0  0  0  0  0  0  0  0
   28.5613    0.8381  -12.1764 O   0  0  0  0  0  0  0  0  0  0  0  0
   26.8748    0.0831  -10.3032 C   0  0  0  0  0  0  0  0  0  0  0  0
   27.9506    0.2362   -9.4202 C   0  0  0  0  0  0  0  0  0  0  0  0
   27.7526    0.1751   -8.0539 C   0  0  0  0  0  0  0  0  0  0  0  0
   26.4986   -0.0369   -7.5207 C   0  0  0  0  0  0  0  0  0  0  0  0
   25.4853   -0.1808   -8.3792 N   0  0  0  0  0  0  0  0  0  0  0  0
   25.6611   -0.1236   -9.7436 C   0  0  0  0  0  0  0  0  0  0  0  0
   24.4872   -0.3081  -10.5763 C   0  0  0  0  0  0  0  0  0  0  0  0
   24.5014   -1.1597  -11.4687 O   0  0  0  0  0  0  0  0  0  0  0  0
   23.3093    0.4650  -10.3991 N   0  0  0  0  0  0  0  0  0  0  0  0
   21.9843   -0.0562  -10.4759 C   0  0  0  0  0  0  0  0  0  0  0  0
   21.7780   -1.3355  -10.9600 C   0  0  0  0  0  0  0  0  0  0  0  0
   20.4872   -1.8128  -11.0235 C   0  0  0  0  0  0  0  0  0  0  0  0
   20.2805   -3.0590  -11.4951 F   0  0  0  0  0  0  0  0  0  0  0  0
   19.4019   -1.0410  -10.6147 C   0  0  0  0  0  0  0  0  0  0  0  0
   19.6040    0.2311  -10.1326 C   0  0  0  0  0  0  0  0  0  0  0  0
   18.4631    1.0084   -9.7141 C   0  0  0  0  0  0  0  0  0  0  0  0
   17.5489    1.6411   -9.3576 N   0  0  0  0  0  0  0  0  0  0  0  0
   20.8927    0.6987  -10.0728 C   0  0  0  0  0  0  0  0  0  0  0  0
  1  2  1  1
  2  3  2  0
  2  4  2  0
  2  5  1  1
  5  6  2  0
  6  7  1  0
  7  8  2  0
  8  9  1  0
  9 10  2  0
 10 11  1  0
 11 12  2  0
 11 13  1  0
 13 14  1  0
 14 15  2  0
 15 16  1  0
 16 17  1  0
 16 18  2  0
 18 19  1  0
 19 20  1  0
 20 21  3  0
 19 22  2  0
 10  5  1  0
 22 14  1  0
M  END
$$$$
