_rank17
     RDKit          3D

 22 23  0  0  0  0  0  0  0  0999 V2000
   28.8443    0.9689   -8.8361 C   0  0  0  0  0  0  0  0  0  0  0  0
   27.2926    0.6832   -9.5748 S   0  0  2  0  0  6  0  0  0  0  0  0
   27.3740    1.1324  -11.0347 O   0  0  0  0  0  0  0  0  0  0  0  0
   26.2047    1.5930   -8.9979 O   0  0  0  0  0  0  0  0  0  0  0  0
   26.7157   -0.9350   -9.5194 C   0  0  0  0  0  0  0  0  0  0  0  0
   27.6566   -1.9718   -9.5111 C   0  0  0  0  0  0  0  0  0  0  0  0
   27.2485   -3.2909   -9.4555 C   0  0  0  0  0  0  0  0  0  0  0  0
   25.9116   -3.6254   -9.4065 C   0  0  0  0  0  0  0  0  0  0  0  0
   25.0294   -2.6224   -9.4156 N   0  0  0  0  0  0  0  0  0  0  0  0
   25.4150   -1.3018   -9.4710 C   0  0  0  0  0  0  0  0  0  0  0  0
   24.3654   -0.3000   -9.4894 C   0  0  0  0  0  0  0  0  0  0  0  0
   24.6191    0.8405   -9.8851 O   0  0  0  0  0  0  0  0  0  0  0  0
   23.0417   -0.5885   -9.0638 N   0  0  0  0  0  0  0  0  0  0  0  0
   21.8867   -0.4779   -9.8926 C   0  0  0  0  0  0  0  0  0  0  0  0
   21.8840   -1.0634  -11.1459 C   0  0  0  0  0  0  0  0  0  0  0  0
   20.7546   -0.9400  -11.9253 C   0  0  0  0  0  0  0  0  0  0  0  0
   20.7468   -1.5084  -13.1480 F   0  0  0  0  0  0  0  0  0  0  0  0
   19.6317   -0.2461  -11.4799 C   0  0  0  0  0  0  0  0  0  0  0  0
   19.6315    0.3368  -10.2341 C   0  0  0  0  0  0  0  0  0  0  0  0
   18.4552    1.0478   -9.7964 C   0  0  0  0  0  0  0  0  0  0  0  0
   17.4916    1.6077   -9.4484 N   0  0  0  0  0  0  0  0  0  0  0  0
   20.7604    0.2091   -9.4645 C   0  0  0  0  0  0  0  0  0  0  0  0
  1  2  1  1
  2  3  2  0
  2  4  2  0
  2  5  1  6
  5  6  2  0
  6  7  1  0
  7  8  2  0
  8  9  1  0
  9 10  2  0
 10 11  1  0
 11 12  2  0
 11 13  1  0
 13 14  1  0
 14 15  2  0
 15 16  1  0
 16 17  1  0
 16 18  2  0
 18 19  1  0
 19 20  1  0
 20 21  3  0
 19 22  2  0
 10  5  1  0
 22 14  1  0
M  END
$$$$
