_rank12
     RDKit          3D

 22 23  0  0  0  0  0  0  0  0999 V2000
   27.9536    0.2208  -11.7814 C   0  0  0  0  0  0  0  0  0  0  0  0
   27.2576   -0.9171  -10.6607 S   0  0  2  0  0  6  0  0  0  0  0  0
   28.3430   -1.9225  -10.2725 O   0  0  0  0  0  0  0  0  0  0  0  0
   26.1958   -1.7996  -11.3222 O   0  0  0  0  0  0  0  0  0  0  0  0
   26.5772   -0.2494   -9.2305 C   0  0  0  0  0  0  0  0  0  0  0  0
   27.4481    0.1614   -8.2141 C   0  0  0  0  0  0  0  0  0  0  0  0
   26.9556    0.7158   -7.0480 C   0  0  0  0  0  0  0  0  0  0  0  0
   25.6008    0.8809   -6.8499 C   0  0  0  0  0  0  0  0  0  0  0  0
   24.7863    0.4827   -7.8309 N   0  0  0  0  0  0  0  0  0  0  0  0
   25.2565   -0.0722   -9.0001 C   0  0  0  0  0  0  0  0  0  0  0  0
   24.2746   -0.4796   -9.9878 C   0  0  0  0  0  0  0  0  0  0  0  0
   24.4882   -0.2643  -11.1835 O   0  0  0  0  0  0  0  0  0  0  0  0
   23.0632   -1.1247   -9.6235 N   0  0  0  0  0  0  0  0  0  0  0  0
   21.8125   -0.9185  -10.2765 C   0  0  0  0  0  0  0  0  0  0  0  0
   21.5521   -1.5568  -11.4759 C   0  0  0  0  0  0  0  0  0  0  0  0
   20.3357   -1.3385  -12.0847 C   0  0  0  0  0  0  0  0  0  0  0  0
   20.0769   -1.9579  -13.2542 F   0  0  0  0  0  0  0  0  0  0  0  0
   19.3773   -0.4986  -11.5221 C   0  0  0  0  0  0  0  0  0  0  0  0
   19.6333    0.1372  -10.3296 C   0  0  0  0  0  0  0  0  0  0  0  0
   18.6230    1.0001   -9.7677 C   0  0  0  0  0  0  0  0  0  0  0  0
   17.8093    1.6907   -9.2944 N   0  0  0  0  0  0  0  0  0  0  0  0
   20.8473   -0.0857   -9.7299 C   0  0  0  0  0  0  0  0  0  0  0  0
  1  2  1  1
  2  3  2  0
  2  4  2  0
  2  5  1  1
  5  6  2  0
  6  7  1  0
  7  8  2  0
  8  9  1  0
  9 10  2  0
 10 11  1  0
 11 12  2  0
 11 13  1  0
 13 14  1  0
 14 15  2  0
 15 16  1  0
 16 17  1  0
 16 18  2  0
 18 19  1  0
 19 20  1  0
 20 21  3  0
 19 22  2  0
 10  5  1  0
 22 14  1  0
M  END
$$$$
