_rank8
     RDKit          3D

 22 23  0  0  0  0  0  0  0  0999 V2000
   21.1858   -2.7839  -12.2816 C   0  0  0  0  0  0  0  0  0  0  0  0
   20.3616   -2.4220  -10.7900 S   0  0  2  0  0  6  0  0  0  0  0  0
   21.1391   -3.0795   -9.6486 O   0  0  0  0  0  0  0  0  0  0  0  0
   18.9936   -3.1043  -10.7087 O   0  0  0  0  0  0  0  0  0  0  0  0
   20.1456   -0.7549  -10.4313 C   0  0  0  0  0  0  0  0  0  0  0  0
   18.8484   -0.2986  -10.1678 C   0  0  0  0  0  0  0  0  0  0  0  0
   18.6190    1.0294   -9.8623 C   0  0  0  0  0  0  0  0  0  0  0  0
   19.6527    1.9406   -9.8075 C   0  0  0  0  0  0  0  0  0  0  0  0
   20.8827    1.4861  -10.0621 N   0  0  0  0  0  0  0  0  0  0  0  0
   21.1327    0.1673  -10.3687 C   0  0  0  0  0  0  0  0  0  0  0  0
   22.5085   -0.2059  -10.6400 C   0  0  0  0  0  0  0  0  0  0  0  0
   22.7447   -1.1801  -11.3589 O   0  0  0  0  0  0  0  0  0  0  0  0
   23.6051    0.5181  -10.1018 N   0  0  0  0  0  0  0  0  0  0  0  0
   24.9740    0.1693  -10.2957 C   0  0  0  0  0  0  0  0  0  0  0  0
   25.4433   -0.0803  -11.5728 C   0  0  0  0  0  0  0  0  0  0  0  0
   26.7702   -0.4159  -11.7303 C   0  0  0  0  0  0  0  0  0  0  0  0
   27.2328   -0.6606  -12.9730 F   0  0  0  0  0  0  0  0  0  0  0  0
   27.6350   -0.5069  -10.6420 C   0  0  0  0  0  0  0  0  0  0  0  0
   27.1712   -0.2590   -9.3711 C   0  0  0  0  0  0  0  0  0  0  0  0
   28.0881   -0.3583   -8.2618 C   0  0  0  0  0  0  0  0  0  0  0  0
   28.8316   -0.4183   -7.3637 N   0  0  0  0  0  0  0  0  0  0  0  0
   25.8484    0.0745   -9.2231 C   0  0  0  0  0  0  0  0  0  0  0  0
  1  2  1  1
  2  3  2  0
  2  4  2  0
  2  5  1  1
  5  6  2  0
  6  7  1  0
  7  8  2  0
  8  9  1  0
  9 10  2  0
 10 11  1  0
 11 12  2  0
 11 13  1  0
 13 14  1  0
 14 15  2  0
 15 16  1  0
 16 17  1  0
 16 18  2  0
 18 19  1  0
 19 20  1  0
 20 21  3  0
 19 22  2  0
 10  5  1  0
 22 14  1  0
M  END
$$$$
