_rank8
     RDKit          3D

 28 30  0  0  0  0  0  0  0  0999 V2000
   18.2469    1.9280   -8.6135 N   0  0  0  0  0  0  0  0  0  0  0  0
   18.8175    1.1125   -9.1645 C   0  0  0  0  0  0  0  0  0  0  0  0
   19.5528    0.1031   -9.8649 C   0  0  0  0  0  0  0  0  0  0  0  0
   19.0222   -1.1640  -10.0095 C   0  0  0  0  0  0  0  0  0  0  0  0
   19.6993   -2.1640  -10.6773 C   0  0  0  0  0  0  0  0  0  0  0  0
   19.1563   -3.3987  -10.8051 F   0  0  0  0  0  0  0  0  0  0  0  0
   20.9575   -1.9161  -11.2324 C   0  0  0  0  0  0  0  0  0  0  0  0
   21.4925   -0.6525  -11.0912 C   0  0  0  0  0  0  0  0  0  0  0  0
   22.7309   -0.4092  -11.6377 O   0  0  0  0  0  0  0  0  0  0  0  0
   23.8956   -0.3760  -10.8619 C   0  0  0  0  0  0  0  0  0  0  0  0
   23.8271   -0.5712   -9.4989 C   0  0  0  0  0  0  0  0  0  0  0  0
   24.9796   -0.5364   -8.7444 C   0  0  0  0  0  0  0  0  0  0  0  0
   26.2303   -0.3056   -9.3327 C   0  0  0  0  0  0  0  0  0  0  0  0
   27.6731   -0.2555   -8.3623 S   0  0  2  0  0  6  0  0  0  0  0  0
   27.3880    0.3462   -7.0080 O   0  0  0  0  0  0  0  0  0  0  0  0
   28.6679    0.6105   -9.1197 O   0  0  0  0  0  0  0  0  0  0  0  0
   28.3475   -1.8701   -8.1920 C   0  0  1  0  0  0  0  0  0  0  0  0
   28.2168   -2.3543   -6.8941 F   0  0  0  0  0  0  0  0  0  0  0  0
   27.6821   -2.7959   -8.9954 F   0  0  0  0  0  0  0  0  0  0  0  0
   26.3054   -0.1113  -10.6865 C   0  0  0  0  0  0  0  0  0  0  0  0
   25.1335   -0.1478  -11.4438 C   0  0  0  0  0  0  0  0  0  0  0  0
   25.5059    0.0959  -12.8579 C   0  0  0  0  0  0  0  0  0  0  0  0
   26.7410    0.9949  -12.6883 C   0  0  2  0  0  0  0  0  0  0  0  0
   26.3169    2.1954  -12.1970 F   0  0  0  0  0  0  0  0  0  0  0  0
   27.4654    1.0601  -13.8361 F   0  0  0  0  0  0  0  0  0  0  0  0
   27.4544    0.1566  -11.6025 C   0  0  2  0  0  0  0  0  0  0  0  0
   27.8051   -1.0407  -12.2340 O   0  0  0  0  0  0  0  0  0  0  0  0
   20.8006    0.3320  -10.4208 C   0  0  0  0  0  0  0  0  0  0  0  0
  1  2  3  0
  2  3  1  0
  3  4  2  0
  4  5  1  0
  5  6  1  0
  5  7  2  0
  7  8  1  0
  8  9  1  0
  9 10  1  0
 10 11  2  0
 11 12  1  0
 12 13  2  0
 14 13  1  6
 14 15  2  0
 14 16  2  0
 14 17  1  0
 17 18  1  1
 17 19  1  0
 13 20  1  0
 20 21  2  0
 22 21  1  6
 22 23  1  0
 23 24  1  1
 23 25  1  0
 23 26  1  0
 26 27  1  6
  8 28  2  0
 28  3  1  0
 21 10  1  0
 26 20  1  0
M  END
$$$$
