_rank5
     RDKit          3D

 28 30  0  0  0  0  0  0  0  0999 V2000
   17.7257    2.1137   -8.7330 N   0  0  0  0  0  0  0  0  0  0  0  0
   18.4142    1.3867   -9.2729 C   0  0  0  0  0  0  0  0  0  0  0  0
   19.2889    0.4904   -9.9669 C   0  0  0  0  0  0  0  0  0  0  0  0
   18.8933   -0.8100  -10.2128 C   0  0  0  0  0  0  0  0  0  0  0  0
   19.7071   -1.7041  -10.8782 C   0  0  0  0  0  0  0  0  0  0  0  0
   19.2949   -2.9744  -11.1066 F   0  0  0  0  0  0  0  0  0  0  0  0
   20.9706   -1.3105  -11.3267 C   0  0  0  0  0  0  0  0  0  0  0  0
   21.3712   -0.0130  -11.0840 C   0  0  0  0  0  0  0  0  0  0  0  0
   22.6149    0.3737  -11.5257 O   0  0  0  0  0  0  0  0  0  0  0  0
   23.7876    0.0441  -10.8361 C   0  0  0  0  0  0  0  0  0  0  0  0
   23.7277   -0.3611   -9.5197 C   0  0  0  0  0  0  0  0  0  0  0  0
   24.8881   -0.6832   -8.8500 C   0  0  0  0  0  0  0  0  0  0  0  0
   26.1382   -0.6088   -9.4787 C   0  0  0  0  0  0  0  0  0  0  0  0
   27.5932   -1.0101   -8.6138 S   0  0  2  0  0  6  0  0  0  0  0  0
   28.5449   -1.7824   -9.4943 O   0  0  0  0  0  0  0  0  0  0  0  0
   27.1654   -1.8650   -7.4309 O   0  0  0  0  0  0  0  0  0  0  0  0
   28.3606    0.4498   -8.0051 C   0  0  1  0  0  0  0  0  0  0  0  0
   28.4886    1.4212   -8.9931 F   0  0  0  0  0  0  0  0  0  0  0  0
   27.6045    1.0506   -6.9988 F   0  0  0  0  0  0  0  0  0  0  0  0
   26.2047   -0.2073  -10.7866 C   0  0  0  0  0  0  0  0  0  0  0  0
   25.0250    0.1175  -11.4579 C   0  0  0  0  0  0  0  0  0  0  0  0
   25.3901    0.5180  -12.8378 C   0  0  0  0  0  0  0  0  0  0  0  0
   26.7896    1.1127  -12.6131 C   0  0  2  0  0  0  0  0  0  0  0  0
   26.6401    2.2728  -11.9101 F   0  0  0  0  0  0  0  0  0  0  0  0
   27.4714    1.2261  -13.7830 F   0  0  0  0  0  0  0  0  0  0  0  0
   27.3517   -0.0215  -11.7252 C   0  0  2  0  0  0  0  0  0  0  0  0
   27.4251   -1.1403  -12.5608 O   0  0  0  0  0  0  0  0  0  0  0  0
   20.5440    0.8642  -10.4180 C   0  0  0  0  0  0  0  0  0  0  0  0
  1  2  3  0
  2  3  1  0
  3  4  2  0
  4  5  1  0
  5  6  1  0
  5  7  2  0
  7  8  1  0
  8  9  1  0
  9 10  1  0
 10 11  2  0
 11 12  1  0
 12 13  2  0
 14 13  1  6
 14 15  2  0
 14 16  2  0
 14 17  1  0
 17 18  1  6
 17 19  1  0
 13 20  1  0
 20 21  2  0
 22 21  1  6
 22 23  1  0
 23 24  1  1
 23 25  1  0
 23 26  1  0
 26 27  1  6
  8 28  2  0
 28  3  1  0
 21 10  1  0
 26 20  1  0
M  END
$$$$
