_rank16
     RDKit          3D

 28 30  0  0  0  0  0  0  0  0999 V2000
   18.2221    2.1311   -8.9549 N   0  0  0  0  0  0  0  0  0  0  0  0
   18.7510    1.3063   -9.5331 C   0  0  0  0  0  0  0  0  0  0  0  0
   19.4249    0.2588  -10.2391 C   0  0  0  0  0  0  0  0  0  0  0  0
   18.8112   -0.9671  -10.4083 C   0  0  0  0  0  0  0  0  0  0  0  0
   19.4272   -2.0018  -11.0824 C   0  0  0  0  0  0  0  0  0  0  0  0
   18.8032   -3.1947  -11.2344 F   0  0  0  0  0  0  0  0  0  0  0  0
   20.7064   -1.8327  -11.6189 C   0  0  0  0  0  0  0  0  0  0  0  0
   21.3243   -0.6106  -11.4531 C   0  0  0  0  0  0  0  0  0  0  0  0
   22.5832   -0.4449  -11.9813 O   0  0  0  0  0  0  0  0  0  0  0  0
   23.7243   -0.3523  -11.1758 C   0  0  0  0  0  0  0  0  0  0  0  0
   23.6505   -0.6491   -9.8316 C   0  0  0  0  0  0  0  0  0  0  0  0
   24.7797   -0.5546   -9.0474 C   0  0  0  0  0  0  0  0  0  0  0  0
   26.0117   -0.1610   -9.5868 C   0  0  0  0  0  0  0  0  0  0  0  0
   27.4242   -0.0380   -8.5789 S   0  0  2  0  0  6  0  0  0  0  0  0
   27.0423   -0.0294   -7.1189 O   0  0  0  0  0  0  0  0  0  0  0  0
   28.1010    1.2726   -8.9495 O   0  0  0  0  0  0  0  0  0  0  0  0
   28.5316   -1.3599   -8.9205 C   0  0  1  0  0  0  0  0  0  0  0  0
   29.7402   -1.2137   -8.2467 F   0  0  0  0  0  0  0  0  0  0  0  0
   28.0216   -2.5856   -8.4929 F   0  0  0  0  0  0  0  0  0  0  0  0
   26.0919    0.1349  -10.9217 C   0  0  0  0  0  0  0  0  0  0  0  0
   24.9438    0.0371  -11.7091 C   0  0  0  0  0  0  0  0  0  0  0  0
   25.3159    0.4155  -13.0933 C   0  0  0  0  0  0  0  0  0  0  0  0
   26.4518    1.4173  -12.8313 C   0  0  2  0  0  0  0  0  0  0  0  0
   25.9010    2.5326  -12.2699 F   0  0  0  0  0  0  0  0  0  0  0  0
   27.1871    1.6344  -13.9532 F   0  0  0  0  0  0  0  0  0  0  0  0
   27.2252    0.5786  -11.7877 C   0  0  2  0  0  0  0  0  0  0  0  0
   27.7052   -0.5309  -12.4907 O   0  0  0  0  0  0  0  0  0  0  0  0
   20.6924    0.4096  -10.7769 C   0  0  0  0  0  0  0  0  0  0  0  0
  1  2  3  0
  2  3  1  0
  3  4  2  0
  4  5  1  0
  5  6  1  0
  5  7  2  0
  7  8  1  0
  8  9  1  0
  9 10  1  0
 10 11  2  0
 11 12  1  0
 12 13  2  0
 14 13  1  6
 14 15  2  0
 14 16  2  0
 14 17  1  0
 17 18  1  1
 17 19  1  0
 13 20  1  0
 20 21  2  0
 22 21  1  6
 22 23  1  0
 23 24  1  1
 23 25  1  0
 23 26  1  0
 26 27  1  6
  8 28  2  0
 28  3  1  0
 21 10  1  0
 26 20  1  0
M  END
$$$$
