_rank18
     RDKit          3D

 28 30  0  0  0  0  0  0  0  0999 V2000
   17.5230    1.9206   -9.3853 N   0  0  0  0  0  0  0  0  0  0  0  0
   18.3179    1.2009   -9.7654 C   0  0  0  0  0  0  0  0  0  0  0  0
   19.3085    0.2968  -10.2666 C   0  0  0  0  0  0  0  0  0  0  0  0
   19.0566   -1.0611  -10.2906 C   0  0  0  0  0  0  0  0  0  0  0  0
   19.9851   -1.9647  -10.7658 C   0  0  0  0  0  0  0  0  0  0  0  0
   19.7129   -3.2919  -10.7784 F   0  0  0  0  0  0  0  0  0  0  0  0
   21.2221   -1.5220  -11.2417 C   0  0  0  0  0  0  0  0  0  0  0  0
   21.4795   -0.1669  -11.2201 C   0  0  0  0  0  0  0  0  0  0  0  0
   22.6971    0.2682  -11.6886 O   0  0  0  0  0  0  0  0  0  0  0  0
   23.8760    0.1262  -10.9474 C   0  0  0  0  0  0  0  0  0  0  0  0
   23.8197   -0.2190   -9.6139 C   0  0  0  0  0  0  0  0  0  0  0  0
   24.9862   -0.3561   -8.8932 C   0  0  0  0  0  0  0  0  0  0  0  0
   26.2390   -0.1517   -9.4869 C   0  0  0  0  0  0  0  0  0  0  0  0
   27.7003   -0.3198   -8.5582 S   0  0  2  0  0  6  0  0  0  0  0  0
   27.4009   -0.3029   -7.0792 O   0  0  0  0  0  0  0  0  0  0  0  0
   28.5797    0.8652   -8.9267 O   0  0  0  0  0  0  0  0  0  0  0  0
   28.5361   -1.8011   -9.0030 C   0  0  1  0  0  0  0  0  0  0  0  0
   29.7426   -1.9417   -8.3243 F   0  0  0  0  0  0  0  0  0  0  0  0
   27.7948   -2.9339   -8.6677 F   0  0  0  0  0  0  0  0  0  0  0  0
   26.3019    0.1911  -10.8115 C   0  0  0  0  0  0  0  0  0  0  0  0
   25.1160    0.3283  -11.5345 C   0  0  0  0  0  0  0  0  0  0  0  0
   25.4779    0.7051  -12.9219 C   0  0  0  0  0  0  0  0  0  0  0  0
   26.7811    1.4854  -12.6866 C   0  0  2  0  0  0  0  0  0  0  0  0
   26.4595    2.6493  -12.0506 F   0  0  0  0  0  0  0  0  0  0  0  0
   27.4856    1.6289  -13.8396 F   0  0  0  0  0  0  0  0  0  0  0  0
   27.4498    0.4775  -11.7234 C   0  0  2  0  0  0  0  0  0  0  0  0
   27.6956   -0.6617  -12.4962 O   0  0  0  0  0  0  0  0  0  0  0  0
   20.5392    0.7188  -10.7418 C   0  0  0  0  0  0  0  0  0  0  0  0
  1  2  3  0
  2  3  1  0
  3  4  2  0
  4  5  1  0
  5  6  1  0
  5  7  2  0
  7  8  1  0
  8  9  1  0
  9 10  1  0
 10 11  2  0
 11 12  1  0
 12 13  2  0
 14 13  1  6
 14 15  2  0
 14 16  2  0
 14 17  1  0
 17 18  1  1
 17 19  1  0
 13 20  1  0
 20 21  2  0
 22 21  1  6
 22 23  1  0
 23 24  1  1
 23 25  1  0
 23 26  1  0
 26 27  1  6
  8 28  2  0
 28  3  1  0
 21 10  1  0
 26 20  1  0
M  END
$$$$
