_rank2
     RDKit          3D

 28 30  0  0  0  0  0  0  0  0999 V2000
   18.3139   -3.9408  -11.1908 N   0  0  0  0  0  0  0  0  0  0  0  0
   18.7323   -2.8944  -11.0351 C   0  0  0  0  0  0  0  0  0  0  0  0
   19.2693   -1.5852  -10.8178 C   0  0  0  0  0  0  0  0  0  0  0  0
   18.5445   -0.6499  -10.1049 C   0  0  0  0  0  0  0  0  0  0  0  0
   19.0271    0.6221   -9.8741 C   0  0  0  0  0  0  0  0  0  0  0  0
   18.2958    1.5208   -9.1717 F   0  0  0  0  0  0  0  0  0  0  0  0
   20.2799    1.0019  -10.3630 C   0  0  0  0  0  0  0  0  0  0  0  0
   21.0084    0.0722  -11.0756 C   0  0  0  0  0  0  0  0  0  0  0  0
   22.2413    0.4465  -11.5564 O   0  0  0  0  0  0  0  0  0  0  0  0
   23.4302    0.1308  -10.8885 C   0  0  0  0  0  0  0  0  0  0  0  0
   23.4067   -0.2046   -9.5515 C   0  0  0  0  0  0  0  0  0  0  0  0
   24.5829   -0.5136   -8.9033 C   0  0  0  0  0  0  0  0  0  0  0  0
   25.8126   -0.4954   -9.5748 C   0  0  0  0  0  0  0  0  0  0  0  0
   27.2882   -0.8789   -8.7370 S   0  0  2  0  0  6  0  0  0  0  0  0
   28.0242   -1.9983   -9.4320 O   0  0  0  0  0  0  0  0  0  0  0  0
   26.8845   -1.3103   -7.3356 O   0  0  0  0  0  0  0  0  0  0  0  0
   28.3067    0.5488   -8.6153 C   0  0  1  0  0  0  0  0  0  0  0  0
   28.8939    0.8746   -9.8340 F   0  0  0  0  0  0  0  0  0  0  0  0
   27.5733    1.6777   -8.2504 F   0  0  0  0  0  0  0  0  0  0  0  0
   25.8429   -0.1634  -10.9033 C   0  0  0  0  0  0  0  0  0  0  0  0
   24.6475    0.1486  -11.5526 C   0  0  0  0  0  0  0  0  0  0  0  0
   24.9738    0.4702  -12.9625 C   0  0  0  0  0  0  0  0  0  0  0  0
   26.3899    1.0491  -12.8141 C   0  0  2  0  0  0  0  0  0  0  0  0
   26.2837    2.2466  -12.1683 F   0  0  0  0  0  0  0  0  0  0  0  0
   27.0347    1.0889  -14.0096 F   0  0  0  0  0  0  0  0  0  0  0  0
   26.9614   -0.0481  -11.8865 C   0  0  2  0  0  0  0  0  0  0  0  0
   26.9879   -1.2098  -12.6645 O   0  0  0  0  0  0  0  0  0  0  0  0
   20.5089   -1.1926  -11.2952 C   0  0  0  0  0  0  0  0  0  0  0  0
  1  2  3  0
  2  3  1  0
  3  4  2  0
  4  5  1  0
  5  6  1  0
  5  7  2  0
  7  8  1  0
  8  9  1  0
  9 10  1  0
 10 11  2  0
 11 12  1  0
 12 13  2  0
 14 13  1  6
 14 15  2  0
 14 16  2  0
 14 17  1  0
 17 18  1  6
 17 19  1  0
 13 20  1  0
 20 21  2  0
 22 21  1  6
 22 23  1  0
 23 24  1  1
 23 25  1  0
 23 26  1  0
 26 27  1  6
  8 28  2  0
 28  3  1  0
 21 10  1  0
 26 20  1  0
M  END
$$$$
