_rank15
     RDKit          3D

 28 30  0  0  0  0  0  0  0  0999 V2000
   17.7681    1.9147   -8.9011 N   0  0  0  0  0  0  0  0  0  0  0  0
   18.4148    1.1624   -9.4580 C   0  0  0  0  0  0  0  0  0  0  0  0
   19.2125    0.2163  -10.1779 C   0  0  0  0  0  0  0  0  0  0  0  0
   18.7422   -1.0650  -10.3907 C   0  0  0  0  0  0  0  0  0  0  0  0
   19.4805   -2.0056  -11.0795 C   0  0  0  0  0  0  0  0  0  0  0  0
   18.9959   -3.2557  -11.2745 F   0  0  0  0  0  0  0  0  0  0  0  0
   20.7415   -1.6807  -11.5866 C   0  0  0  0  0  0  0  0  0  0  0  0
   21.2165   -0.4027  -11.3772 C   0  0  0  0  0  0  0  0  0  0  0  0
   22.4576   -0.0835  -11.8766 O   0  0  0  0  0  0  0  0  0  0  0  0
   23.6117   -0.1175  -11.0853 C   0  0  0  0  0  0  0  0  0  0  0  0
   23.5129   -0.2921   -9.7214 C   0  0  0  0  0  0  0  0  0  0  0  0
   24.6553   -0.3239   -8.9515 C   0  0  0  0  0  0  0  0  0  0  0  0
   25.9259   -0.1821   -9.5251 C   0  0  0  0  0  0  0  0  0  0  0  0
   27.3563   -0.2151   -8.5355 S   0  0  2  0  0  6  0  0  0  0  0  0
   26.9945   -0.2844   -7.0720 O   0  0  0  0  0  0  0  0  0  0  0  0
   28.1078    1.0746   -8.8273 O   0  0  0  0  0  0  0  0  0  0  0  0
   28.3755   -1.5749   -8.9856 C   0  0  1  0  0  0  0  0  0  0  0  0
   29.6342   -1.1630   -9.4124 F   0  0  0  0  0  0  0  0  0  0  0  0
   28.6162   -2.4213   -7.9035 F   0  0  0  0  0  0  0  0  0  0  0  0
   26.0312   -0.0087  -10.8797 C   0  0  0  0  0  0  0  0  0  0  0  0
   24.8694    0.0227  -11.6525 C   0  0  0  0  0  0  0  0  0  0  0  0
   25.2752    0.2253  -13.0639 C   0  0  0  0  0  0  0  0  0  0  0  0
   26.5642    1.0436  -12.8870 C   0  0  2  0  0  0  0  0  0  0  0  0
   26.2132    2.2748  -12.4144 F   0  0  0  0  0  0  0  0  0  0  0  0
   27.3062    1.0482  -14.0253 F   0  0  0  0  0  0  0  0  0  0  0  0
   27.2071    0.1731  -11.7826 C   0  0  2  0  0  0  0  0  0  0  0  0
   27.4868   -1.0518  -12.3965 O   0  0  0  0  0  0  0  0  0  0  0  0
   20.4639    0.5218  -10.6870 C   0  0  0  0  0  0  0  0  0  0  0  0
  1  2  3  0
  2  3  1  0
  3  4  2  0
  4  5  1  0
  5  6  1  0
  5  7  2  0
  7  8  1  0
  8  9  1  0
  9 10  1  0
 10 11  2  0
 11 12  1  0
 12 13  2  0
 14 13  1  6
 14 15  2  0
 14 16  2  0
 14 17  1  0
 17 18  1  1
 17 19  1  0
 13 20  1  0
 20 21  2  0
 22 21  1  6
 22 23  1  0
 23 24  1  1
 23 25  1  0
 23 26  1  0
 26 27  1  6
  8 28  2  0
 28  3  1  0
 21 10  1  0
 26 20  1  0
M  END
$$$$
