_rank16
     RDKit          3D

 20 21  0  0  0  0  0  0  0  0999 V2000
   21.6696    0.4843  -11.5580 C   0  0  0  0  0  0  0  0  0  0  0  0
   20.4848   -0.1269  -12.3239 C   0  0  0  0  0  0  0  0  0  0  0  0
   19.5070   -0.3043  -11.3141 O   0  0  0  0  0  0  0  0  0  0  0  0
   19.8590   -1.2580  -10.4103 C   0  0  0  0  0  0  0  0  0  0  0  0
   21.2793   -1.2729   -9.9696 C   0  0  0  0  0  0  0  0  0  0  0  0
   22.1969   -0.5362  -10.7403 N   0  0  0  0  0  0  0  0  0  0  0  0
   23.3538   -1.1606  -11.1263 N   0  0  0  0  0  0  0  0  0  0  0  0
   24.5404   -0.8893  -10.3992 C   0  0  0  0  0  0  0  0  0  0  0  0
   25.5111   -0.0619  -10.9110 C   0  0  0  0  0  0  0  0  0  0  0  0
   26.6694    0.2303  -10.1836 C   0  0  0  0  0  0  0  0  0  0  0  0
   26.8395   -0.3148   -8.9461 C   0  0  0  0  0  0  0  0  0  0  0  0
   25.8841   -1.1476   -8.4087 C   0  0  0  0  0  0  0  0  0  0  0  0
   24.7477   -1.4221   -9.1455 C   0  0  0  0  0  0  0  0  0  0  0  0
   28.0595   -0.0327   -8.1248 C   0  0  1  0  0  0  0  0  0  0  0  0
   27.7936   -0.3058   -6.8070 F   0  0  0  0  0  0  0  0  0  0  0  0
   29.0421   -0.9224   -8.5675 F   0  0  0  0  0  0  0  0  0  0  0  0
   28.4734    1.2509   -8.3383 F   0  0  0  0  0  0  0  0  0  0  0  0
   25.4189    0.5366  -12.1962 N   0  0  0  0  0  4  0  0  0  0  0  0
   26.0597    1.5745  -12.4297 O   0  0  0  0  0  0  0  0  0  0  0  0
   24.6401   -0.0079  -13.1572 O   0  0  0  0  0  1  0  0  0  0  0  0
  1  2  1  0
  2  3  1  6
  4  3  1  6
  4  5  1  0
  5  6  1  1
  6  7  1  0
  7  8  1  0
  8  9  2  0
  9 10  1  0
 10 11  2  0
 11 12  1  0
 12 13  2  0
 11 14  1  0
 14 15  1  1
 14 16  1  0
 14 17  1  0
  9 18  1  0
 18 19  2  0
 18 20  1  0
  1  6  1  6
 13  8  1  0
M  CHG  2  18   1  20  -1
M  END
$$$$
