_rank20
     RDKit          3D

 20 21  0  0  0  0  0  0  0  0999 V2000
   27.3062   -1.3865  -10.5782 C   0  0  0  0  0  0  0  0  0  0  0  0
   28.3608   -0.7323   -9.6706 C   0  0  0  0  0  0  0  0  0  0  0  0
   28.2781   -1.4961   -8.4802 O   0  0  0  0  0  0  0  0  0  0  0  0
   27.1006   -1.3122   -7.8244 C   0  0  0  0  0  0  0  0  0  0  0  0
   25.8712   -1.2473   -8.6587 C   0  0  0  0  0  0  0  0  0  0  0  0
   26.0447   -1.0565  -10.0415 N   0  0  0  0  0  0  0  0  0  0  0  0
   25.3035   -0.0778  -10.6497 N   0  0  0  0  0  0  0  0  0  0  0  0
   23.9430    0.0659  -10.2775 C   0  0  0  0  0  0  0  0  0  0  0  0
   23.2639    1.2371  -10.5138 C   0  0  0  0  0  0  0  0  0  0  0  0
   21.9140    1.3717  -10.1738 C   0  0  0  0  0  0  0  0  0  0  0  0
   21.2599    0.3239   -9.5978 C   0  0  0  0  0  0  0  0  0  0  0  0
   21.9150   -0.8609   -9.3487 C   0  0  0  0  0  0  0  0  0  0  0  0
   23.2488   -0.9711   -9.6931 C   0  0  0  0  0  0  0  0  0  0  0  0
   19.8146    0.4144   -9.2166 C   0  0  1  0  0  0  0  0  0  0  0  0
   19.2389   -0.8266   -9.3187 F   0  0  0  0  0  0  0  0  0  0  0  0
   19.7886    0.8008   -7.8738 F   0  0  0  0  0  0  0  0  0  0  0  0
   19.1944    1.3626   -9.9786 F   0  0  0  0  0  0  0  0  0  0  0  0
   23.8729    2.3803  -11.0976 N   0  0  0  0  0  4  0  0  0  0  0  0
   25.0648    2.3239  -11.4419 O   0  0  0  0  0  0  0  0  0  0  0  0
   23.1713    3.5220  -11.2741 O   0  0  0  0  0  1  0  0  0  0  0  0
  1  2  1  0
  2  3  1  6
  4  3  1  6
  4  5  1  0
  5  6  1  1
  6  7  1  0
  7  8  1  0
  8  9  2  0
  9 10  1  0
 10 11  2  0
 11 12  1  0
 12 13  2  0
 11 14  1  0
 14 15  1  1
 14 16  1  0
 14 17  1  0
  9 18  1  0
 18 19  2  0
 18 20  1  0
  1  6  1  6
 13  8  1  0
M  CHG  2  18   1  20  -1
M  END
$$$$
