_rank18
     RDKit          3D

 20 21  0  0  0  0  0  0  0  0999 V2000
   20.8408   -0.8612  -11.8742 C   0  0  0  0  0  0  0  0  0  0  0  0
   20.2070   -1.2436  -10.5266 C   0  0  0  0  0  0  0  0  0  0  0  0
   19.8430    0.0100   -9.9758 O   0  0  0  0  0  0  0  0  0  0  0  0
   20.9237    0.7662   -9.6434 C   0  0  0  0  0  0  0  0  0  0  0  0
   22.0621    0.7665  -10.6005 C   0  0  0  0  0  0  0  0  0  0  0  0
   22.0725   -0.2392  -11.5839 N   0  0  0  0  0  0  0  0  0  0  0  0
   23.2296   -0.9523  -11.7566 N   0  0  0  0  0  0  0  0  0  0  0  0
   24.2888   -0.7504  -10.8359 C   0  0  0  0  0  0  0  0  0  0  0  0
   25.4572   -0.1394  -11.2235 C   0  0  0  0  0  0  0  0  0  0  0  0
   26.4923    0.0868  -10.3106 C   0  0  0  0  0  0  0  0  0  0  0  0
   26.3408   -0.3054   -9.0142 C   0  0  0  0  0  0  0  0  0  0  0  0
   25.1817   -0.9204   -8.5980 C   0  0  0  0  0  0  0  0  0  0  0  0
   24.1723   -1.1336   -9.5175 C   0  0  0  0  0  0  0  0  0  0  0  0
   27.4167   -0.0849   -7.9962 C   0  0  1  0  0  0  0  0  0  0  0  0
   27.1096   -0.7778   -6.8527 F   0  0  0  0  0  0  0  0  0  0  0  0
   28.5843   -0.6289   -8.5384 F   0  0  0  0  0  0  0  0  0  0  0  0
   27.5883    1.2536   -7.7880 F   0  0  0  0  0  0  0  0  0  0  0  0
   25.7018    0.2883  -12.5561 N   0  0  0  0  0  4  0  0  0  0  0  0
   26.8693    0.5068  -12.9188 O   0  0  0  0  0  0  0  0  0  0  0  0
   24.6802    0.4636  -13.4235 O   0  0  0  0  0  1  0  0  0  0  0  0
  1  2  1  0
  2  3  1  6
  4  3  1  6
  4  5  1  0
  5  6  1  1
  6  7  1  0
  7  8  1  0
  8  9  2  0
  9 10  1  0
 10 11  2  0
 11 12  1  0
 12 13  2  0
 11 14  1  0
 14 15  1  1
 14 16  1  0
 14 17  1  0
  9 18  1  0
 18 19  2  0
 18 20  1  0
  1  6  1  6
 13  8  1  0
M  CHG  2  18   1  20  -1
M  END
$$$$
