_rank3
     RDKit          3D

 26 28  0  0  0  0  0  0  0  0999 V2000
   28.4033    1.0647   -8.1855 C   0  0  0  0  0  0  0  0  0  0  0  0
   27.5449   -0.4752   -8.4020 S   0  0  1  0  0  6  0  0  0  0  0  0
   28.4664   -1.3635   -9.2259 O   0  0  0  0  0  0  0  0  0  0  0  0
   27.3262   -1.1907   -7.1059 O   0  0  0  0  0  0  0  0  0  0  0  0
   26.0723   -0.2791   -9.3155 C   0  0  0  0  0  0  0  0  0  0  0  0
   26.1023   -0.0757  -10.6835 C   0  0  0  0  0  0  0  0  0  0  0  0
   27.3092    0.0132  -11.5762 C   0  0  2  0  0  0  0  0  0  0  0  0
   28.3373    0.7237  -10.9862 O   0  0  0  0  0  0  0  0  0  0  0  0
   26.7542    0.8767  -12.7199 C   0  0  1  0  0  0  0  0  0  0  0  0
   26.5997    2.1838  -12.3042 F   0  0  0  0  0  0  0  0  0  0  0  0
   27.5039    0.7493  -13.8505 F   0  0  0  0  0  0  0  0  0  0  0  0
   25.3750    0.2748  -12.8542 C   0  0  0  0  0  0  0  0  0  0  0  0
   24.9648    0.0834  -11.4412 C   0  0  0  0  0  0  0  0  0  0  0  0
   23.7259    0.0377  -10.8013 C   0  0  0  0  0  0  0  0  0  0  0  0
   22.5750    0.1977  -11.5611 O   0  0  0  0  0  0  0  0  0  0  0  0
   21.3614   -0.1796  -11.0270 C   0  0  0  0  0  0  0  0  0  0  0  0
   20.5984    0.7483  -10.3786 C   0  0  0  0  0  0  0  0  0  0  0  0
   19.3796    0.3868   -9.8375 C   0  0  0  0  0  0  0  0  0  0  0  0
   18.9239   -0.9083   -9.9465 C   0  0  0  0  0  0  0  0  0  0  0  0
   19.6771   -1.8502  -10.5936 C   0  0  0  0  0  0  0  0  0  0  0  0
   19.2293   -3.1077  -10.6966 F   0  0  0  0  0  0  0  0  0  0  0  0
   20.8866   -1.4793  -11.1272 C   0  0  0  0  0  0  0  0  0  0  0  0
   18.5984    1.3686   -9.1651 C   0  0  0  0  0  0  0  0  0  0  0  0
   17.9633    2.1939   -8.6201 N   0  0  0  0  0  0  0  0  0  0  0  0
   23.6596   -0.1633   -9.4399 C   0  0  0  0  0  0  0  0  0  0  0  0
   24.8192   -0.3175   -8.7215 C   0  0  0  0  0  0  0  0  0  0  0  0
  1  2  1  1
  2  3  2  0
  2  4  2  0
  2  5  1  6
  5  6  2  0
  6  7  1  0
  7  8  1  1
  7  9  1  0
  9 10  1  1
  9 11  1  0
  9 12  1  0
 12 13  1  1
 13 14  2  0
 14 15  1  0
 15 16  1  0
 16 17  2  0
 17 18  1  0
 18 19  2  0
 19 20  1  0
 20 21  1  0
 20 22  2  0
 18 23  1  0
 23 24  3  0
 14 25  1  0
 25 26  2  0
 26  5  1  0
 13  6  1  0
 22 16  1  0
M  END
$$$$
