_rank11
     RDKit          3D

 26 28  0  0  0  0  0  0  0  0999 V2000
   28.0496    0.9058   -8.0571 C   0  0  0  0  0  0  0  0  0  0  0  0
   27.3902   -0.6267   -8.6669 S   0  0  1  0  0  6  0  0  0  0  0  0
   28.4005   -1.1522   -9.6771 O   0  0  0  0  0  0  0  0  0  0  0  0
   27.2911   -1.6683   -7.5969 O   0  0  0  0  0  0  0  0  0  0  0  0
   25.8863   -0.3974   -9.5195 C   0  0  0  0  0  0  0  0  0  0  0  0
   25.8653   -0.1862  -10.8865 C   0  0  0  0  0  0  0  0  0  0  0  0
   27.0370   -0.1148  -11.8265 C   0  0  2  0  0  0  0  0  0  0  0  0
   28.1013    0.5725  -11.2744 O   0  0  0  0  0  0  0  0  0  0  0  0
   26.4532    0.7660  -12.9423 C   0  0  1  0  0  0  0  0  0  0  0  0
   26.3406    2.0732  -12.5139 F   0  0  0  0  0  0  0  0  0  0  0  0
   27.1545    0.6312  -14.1028 F   0  0  0  0  0  0  0  0  0  0  0  0
   25.0585    0.1910  -13.0243 C   0  0  0  0  0  0  0  0  0  0  0  0
   24.7016   -0.0011  -11.5971 C   0  0  0  0  0  0  0  0  0  0  0  0
   23.4887   -0.0273  -10.9082 C   0  0  0  0  0  0  0  0  0  0  0  0
   22.3116    0.1591  -11.6202 O   0  0  0  0  0  0  0  0  0  0  0  0
   21.1099   -0.1580  -11.0236 C   0  0  0  0  0  0  0  0  0  0  0  0
   20.6341   -1.4343  -11.1146 C   0  0  0  0  0  0  0  0  0  0  0  0
   19.4315   -1.7688  -10.5224 C   0  0  0  0  0  0  0  0  0  0  0  0
   18.7034   -0.8218   -9.8370 C   0  0  0  0  0  0  0  0  0  0  0  0
   19.1670    0.4621   -9.7368 C   0  0  0  0  0  0  0  0  0  0  0  0
   18.4552    1.3788   -9.0694 F   0  0  0  0  0  0  0  0  0  0  0  0
   20.3633    0.7829  -10.3294 C   0  0  0  0  0  0  0  0  0  0  0  0
   18.9519   -3.1049  -10.6283 C   0  0  0  0  0  0  0  0  0  0  0  0
   18.5664   -4.2103  -10.7331 N   0  0  0  0  0  0  0  0  0  0  0  0
   23.4732   -0.2352   -9.5463 C   0  0  0  0  0  0  0  0  0  0  0  0
   24.6575   -0.4156   -8.8758 C   0  0  0  0  0  0  0  0  0  0  0  0
  1  2  1  1
  2  3  2  0
  2  4  2  0
  2  5  1  6
  5  6  2  0
  6  7  1  0
  7  8  1  1
  7  9  1  0
  9 10  1  1
  9 11  1  0
  9 12  1  0
 12 13  1  1
 13 14  2  0
 14 15  1  0
 15 16  1  0
 16 17  2  0
 17 18  1  0
 18 19  2  0
 19 20  1  0
 20 21  1  0
 20 22  2  0
 18 23  1  0
 23 24  3  0
 14 25  1  0
 25 26  2  0
 26  5  1  0
 13  6  1  0
 22 16  1  0
M  END
$$$$
