_rank11
     RDKit          3D

 20 21  0  0  0  0  0  0  0  0999 V2000
   20.8967   -0.4862  -12.0296 C   0  0  0  0  0  0  0  0  0  0  0  0
   20.0113   -1.4094  -11.1765 C   0  0  0  0  0  0  0  0  0  0  0  0
   19.5558   -0.5529  -10.1439 O   0  0  0  0  0  0  0  0  0  0  0  0
   20.5566   -0.1689   -9.3065 C   0  0  0  0  0  0  0  0  0  0  0  0
   21.8588    0.1811   -9.9339 C   0  0  0  0  0  0  0  0  0  0  0  0
   22.0529   -0.2136  -11.2699 N   0  0  0  0  0  0  0  0  0  0  0  0
   23.2168   -0.8662  -11.5810 N   0  0  0  0  0  0  0  0  0  0  0  0
   24.3345   -0.6942  -10.7258 C   0  0  0  0  0  0  0  0  0  0  0  0
   25.5302   -0.2201  -11.2099 C   0  0  0  0  0  0  0  0  0  0  0  0
   26.6257   -0.0222  -10.3633 C   0  0  0  0  0  0  0  0  0  0  0  0
   26.5065   -0.3044   -9.0352 C   0  0  0  0  0  0  0  0  0  0  0  0
   25.3212   -0.7813   -8.5228 C   0  0  0  0  0  0  0  0  0  0  0  0
   24.2521   -0.9690   -9.3782 C   0  0  0  0  0  0  0  0  0  0  0  0
   27.6474   -0.1083   -8.0853 C   0  0  1  0  0  0  0  0  0  0  0  0
   27.6171   -1.0916   -7.1292 F   0  0  0  0  0  0  0  0  0  0  0  0
   28.8139   -0.2651   -8.8388 F   0  0  0  0  0  0  0  0  0  0  0  0
   27.6037    1.1535   -7.5651 F   0  0  0  0  0  0  0  0  0  0  0  0
   25.7432    0.0865  -12.5808 N   0  0  0  0  0  4  0  0  0  0  0  0
   24.7813    0.0563  -13.3659 O   0  0  0  0  0  0  0  0  0  0  0  0
   26.9766    0.4023  -13.0342 O   0  0  0  0  0  1  0  0  0  0  0  0
  1  2  1  0
  2  3  1  6
  4  3  1  6
  4  5  1  0
  5  6  1  1
  6  7  1  0
  7  8  1  0
  8  9  2  0
  9 10  1  0
 10 11  2  0
 11 12  1  0
 12 13  2  0
 11 14  1  0
 14 15  1  1
 14 16  1  0
 14 17  1  0
  9 18  1  0
 18 19  2  0
 18 20  1  0
  1  6  1  6
 13  8  1  0
M  CHG  2  18   1  20  -1
M  END
$$$$
