_rank20
     RDKit          3D

 26 28  0  0  0  0  0  0  0  0999 V2000
   18.6692   -0.0317  -10.7386 C   0  0  0  0  0  0  0  0  0  0  0  0
   19.5604   -1.5206  -10.3590 S   0  0  1  0  0  6  0  0  0  0  0  0
   19.2889   -1.8160   -8.8906 O   0  0  0  0  0  0  0  0  0  0  0  0
   19.0468   -2.7005  -11.1229 O   0  0  0  0  0  0  0  0  0  0  0  0
   21.2835   -1.3116  -10.5285 C   0  0  0  0  0  0  0  0  0  0  0  0
   21.8386   -0.9007  -11.7272 C   0  0  0  0  0  0  0  0  0  0  0  0
   21.1256   -0.5841  -13.0129 C   0  0  2  0  0  0  0  0  0  0  0  0
   20.0978   -1.4726  -13.2663 O   0  0  0  0  0  0  0  0  0  0  0  0
   22.2388   -0.8696  -14.0332 C   0  0  1  0  0  0  0  0  0  0  0  0
   22.4531   -2.2286  -14.1435 F   0  0  0  0  0  0  0  0  0  0  0  0
   21.9915   -0.2582  -15.2256 F   0  0  0  0  0  0  0  0  0  0  0  0
   23.4207   -0.2793  -13.3002 C   0  0  0  0  0  0  0  0  0  0  0  0
   23.1917   -0.7235  -11.9032 C   0  0  0  0  0  0  0  0  0  0  0  0
   24.0419   -0.9694  -10.8248 C   0  0  0  0  0  0  0  0  0  0  0  0
   25.4081   -0.7923  -10.9969 O   0  0  0  0  0  0  0  0  0  0  0  0
   26.2370   -0.8632   -9.8976 C   0  0  0  0  0  0  0  0  0  0  0  0
   26.8008    0.2805   -9.4102 C   0  0  0  0  0  0  0  0  0  0  0  0
   27.6339    0.2270   -8.3093 C   0  0  0  0  0  0  0  0  0  0  0  0
   27.9028   -0.9759   -7.6949 C   0  0  0  0  0  0  0  0  0  0  0  0
   27.3452   -2.1314   -8.1717 C   0  0  0  0  0  0  0  0  0  0  0  0
   27.6100   -3.2980   -7.5707 F   0  0  0  0  0  0  0  0  0  0  0  0
   26.5189   -2.0659   -9.2663 C   0  0  0  0  0  0  0  0  0  0  0  0
   28.2125    1.4303   -7.8157 C   0  0  0  0  0  0  0  0  0  0  0  0
   28.7061    2.4132   -7.4009 N   0  0  0  0  0  0  0  0  0  0  0  0
   23.5226   -1.3800   -9.6165 C   0  0  0  0  0  0  0  0  0  0  0  0
   22.1661   -1.5443   -9.4838 C   0  0  0  0  0  0  0  0  0  0  0  0
  1  2  1  1
  2  3  2  0
  2  4  2  0
  2  5  1  1
  5  6  2  0
  6  7  1  0
  7  8  1  6
  7  9  1  0
  9 10  1  6
  9 11  1  0
  9 12  1  0
 12 13  1  1
 13 14  2  0
 14 15  1  0
 15 16  1  0
 16 17  2  0
 17 18  1  0
 18 19  2  0
 19 20  1  0
 20 21  1  0
 20 22  2  0
 18 23  1  0
 23 24  3  0
 14 25  1  0
 25 26  2  0
 26  5  1  0
 13  6  1  0
 22 16  1  0
M  END
$$$$
