_rank19
     RDKit          3D

 20 21  0  0  0  0  0  0  0  0999 V2000
   20.9544   -0.9115  -11.7216 C   0  0  0  0  0  0  0  0  0  0  0  0
   20.4016   -1.0986  -10.2992 C   0  0  0  0  0  0  0  0  0  0  0  0
   20.0791    0.2230   -9.9036 O   0  0  0  0  0  0  0  0  0  0  0  0
   21.1826    1.0020   -9.7422 C   0  0  0  0  0  0  0  0  0  0  0  0
   22.2606    0.8565  -10.7563 C   0  0  0  0  0  0  0  0  0  0  0  0
   22.2052   -0.2733  -11.5924 N   0  0  0  0  0  0  0  0  0  0  0  0
   23.3454   -1.0196  -11.7349 N   0  0  0  0  0  0  0  0  0  0  0  0
   24.4128   -0.7980  -10.8284 C   0  0  0  0  0  0  0  0  0  0  0  0
   25.5105   -0.0564  -11.1945 C   0  0  0  0  0  0  0  0  0  0  0  0
   26.5516    0.1878  -10.2932 C   0  0  0  0  0  0  0  0  0  0  0  0
   26.4774   -0.3183   -9.0299 C   0  0  0  0  0  0  0  0  0  0  0  0
   25.3903   -1.0653   -8.6359 C   0  0  0  0  0  0  0  0  0  0  0  0
   24.3735   -1.2938   -9.5434 C   0  0  0  0  0  0  0  0  0  0  0  0
   27.5631   -0.0845   -8.0254 C   0  0  1  0  0  0  0  0  0  0  0  0
   27.5483    1.2314   -7.6378 F   0  0  0  0  0  0  0  0  0  0  0  0
   27.2444   -0.8721   -6.9158 F   0  0  0  0  0  0  0  0  0  0  0  0
   28.7631   -0.4829   -8.5410 F   0  0  0  0  0  0  0  0  0  0  0  0
   25.6729    0.4960  -12.4934 N   0  0  0  0  0  4  0  0  0  0  0  0
   26.7366    1.0695  -12.7803 O   0  0  0  0  0  0  0  0  0  0  0  0
   24.6836    0.4080  -13.4099 O   0  0  0  0  0  1  0  0  0  0  0  0
  1  2  1  0
  2  3  1  6
  4  3  1  6
  4  5  1  0
  5  6  1  1
  6  7  1  0
  7  8  1  0
  8  9  2  0
  9 10  1  0
 10 11  2  0
 11 12  1  0
 12 13  2  0
 11 14  1  0
 14 15  1  1
 14 16  1  0
 14 17  1  0
  9 18  1  0
 18 19  2  0
 18 20  1  0
  1  6  1  6
 13  8  1  0
M  CHG  2  18   1  20  -1
M  END
$$$$
