_rank5
     RDKit          3D

 20 21  0  0  0  0  0  0  0  0999 V2000
   20.5462    0.0661  -11.3785 C   0  0  0  0  0  0  0  0  0  0  0  0
   19.8641   -1.1489  -12.0284 C   0  0  0  0  0  0  0  0  0  0  0  0
   19.3379   -1.8537  -10.9177 O   0  0  0  0  0  0  0  0  0  0  0  0
   20.3110   -2.3876  -10.1314 C   0  0  0  0  0  0  0  0  0  0  0  0
   21.5061   -1.5404   -9.8749 C   0  0  0  0  0  0  0  0  0  0  0  0
   21.6857   -0.4183  -10.7038 N   0  0  0  0  0  0  0  0  0  0  0  0
   22.9183   -0.2350  -11.2733 N   0  0  0  0  0  0  0  0  0  0  0  0
   24.0665   -0.3756  -10.4535 C   0  0  0  0  0  0  0  0  0  0  0  0
   25.3297   -0.2143  -10.9702 C   0  0  0  0  0  0  0  0  0  0  0  0
   26.4629   -0.3241  -10.1578 C   0  0  0  0  0  0  0  0  0  0  0  0
   26.3128   -0.5961   -8.8308 C   0  0  0  0  0  0  0  0  0  0  0  0
   25.0597   -0.7634   -8.2861 C   0  0  0  0  0  0  0  0  0  0  0  0
   23.9544   -0.6504   -9.1079 C   0  0  0  0  0  0  0  0  0  0  0  0
   27.4923   -0.7217   -7.9167 C   0  0  1  0  0  0  0  0  0  0  0  0
   28.0520   -1.9653   -8.0649 F   0  0  0  0  0  0  0  0  0  0  0  0
   28.4208    0.2311   -8.3447 F   0  0  0  0  0  0  0  0  0  0  0  0
   27.1134   -0.4485   -6.6336 F   0  0  0  0  0  0  0  0  0  0  0  0
   25.5754    0.0580  -12.3428 N   0  0  0  0  0  4  0  0  0  0  0  0
   24.6421   -0.0364  -13.1568 O   0  0  0  0  0  0  0  0  0  0  0  0
   26.8094    0.4105  -12.7668 O   0  0  0  0  0  1  0  0  0  0  0  0
  1  2  1  0
  2  3  1  6
  4  3  1  6
  4  5  1  0
  5  6  1  1
  6  7  1  0
  7  8  1  0
  8  9  2  0
  9 10  1  0
 10 11  2  0
 11 12  1  0
 12 13  2  0
 11 14  1  0
 14 15  1  1
 14 16  1  0
 14 17  1  0
  9 18  1  0
 18 19  2  0
 18 20  1  0
  1  6  1  6
 13  8  1  0
M  CHG  2  18   1  20  -1
M  END
$$$$
