_rank4
     RDKit          3D

 20 21  0  0  0  0  0  0  0  0999 V2000
   20.6363    0.1436  -10.9558 C   0  0  0  0  0  0  0  0  0  0  0  0
   19.7786   -0.5519  -12.0257 C   0  0  0  0  0  0  0  0  0  0  0  0
   19.3366   -1.7269  -11.3689 O   0  0  0  0  0  0  0  0  0  0  0  0
   20.3512   -2.5991  -11.1234 C   0  0  0  0  0  0  0  0  0  0  0  0
   21.6362   -2.0177  -10.6516 C   0  0  0  0  0  0  0  0  0  0  0  0
   21.8056   -0.6297  -10.8044 N   0  0  0  0  0  0  0  0  0  0  0  0
   22.9691   -0.1870  -11.3767 N   0  0  0  0  0  0  0  0  0  0  0  0
   24.1636   -0.2591  -10.6163 C   0  0  0  0  0  0  0  0  0  0  0  0
   25.3860   -0.0089  -11.1924 C   0  0  0  0  0  0  0  0  0  0  0  0
   26.5631   -0.0512  -10.4383 C   0  0  0  0  0  0  0  0  0  0  0  0
   26.4979   -0.3459   -9.1093 C   0  0  0  0  0  0  0  0  0  0  0  0
   25.2873   -0.6016   -8.5058 C   0  0  0  0  0  0  0  0  0  0  0  0
   24.1373   -0.5541   -9.2707 C   0  0  0  0  0  0  0  0  0  0  0  0
   27.7272   -0.4018   -8.2561 C   0  0  1  0  0  0  0  0  0  0  0  0
   27.3977   -0.0855   -6.9625 F   0  0  0  0  0  0  0  0  0  0  0  0
   28.1627   -1.7294   -8.2856 F   0  0  0  0  0  0  0  0  0  0  0  0
   28.6919    0.4090   -8.7822 F   0  0  0  0  0  0  0  0  0  0  0  0
   25.5443    0.2928  -12.5718 N   0  0  0  0  0  4  0  0  0  0  0  0
   26.6714    0.5855  -13.0036 O   0  0  0  0  0  0  0  0  0  0  0  0
   24.4841    0.2698  -13.4097 O   0  0  0  0  0  1  0  0  0  0  0  0
  1  2  1  0
  2  3  1  6
  4  3  1  6
  4  5  1  0
  5  6  1  1
  6  7  1  0
  7  8  1  0
  8  9  2  0
  9 10  1  0
 10 11  2  0
 11 12  1  0
 12 13  2  0
 11 14  1  0
 14 15  1  1
 14 16  1  0
 14 17  1  0
  9 18  1  0
 18 19  2  0
 18 20  1  0
  1  6  1  6
 13  8  1  0
M  CHG  2  18   1  20  -1
M  END
$$$$
