_rank9
     RDKit          3D

 23 26  0  0  0  0  0  0  0  0999 V2000
   25.4562    0.4574   -7.6876 F   0  0  0  0  0  0  0  0  0  0  0  0
   26.3495   -0.3626   -8.2731 C   0  0  0  0  0  0  0  0  0  0  0  0
   27.3328   -0.9042   -7.4399 C   0  0  0  0  0  0  0  0  0  0  0  0
   28.2873   -1.7576   -7.9677 C   0  0  0  0  0  0  0  0  0  0  0  0
   28.2533   -2.0586   -9.3009 C   0  0  0  0  0  0  0  0  0  0  0  0
   27.2731   -1.5131  -10.1070 C   0  0  0  0  0  0  0  0  0  0  0  0
   26.3115   -0.6634   -9.6165 C   0  0  0  0  0  0  0  0  0  0  0  0
   25.2578   -0.0650  -10.4574 C   0  0  2  0  0  0  0  0  0  0  0  0
   24.3803   -1.1144  -11.0996 C   0  0  0  0  0  0  0  0  0  0  0  0
   23.2011   -0.5281  -11.7987 C   0  0  1  0  0  0  0  0  0  0  0  0
   21.9554   -0.5130  -11.0251 C   0  0  0  0  0  0  0  0  0  0  0  0
   21.5790    0.5838  -10.2804 C   0  0  0  0  0  0  0  0  0  0  0  0
   20.4142    0.6176   -9.5407 C   0  0  0  0  0  0  0  0  0  0  0  0
   19.5615   -0.4785   -9.5212 C   0  0  0  0  0  0  0  0  0  0  0  0
   19.9254   -1.5785  -10.2596 C   0  0  0  0  0  0  0  0  0  0  0  0
   18.7415   -3.0902  -10.2275 Br  0  0  0  0  0  0  0  0  0  0  0  0
   21.0900   -1.5960  -10.9914 C   0  0  0  0  0  0  0  0  0  0  0  0
   23.5556    0.7911  -12.2990 N   0  0  0  0  0  0  0  0  0  0  0  0
   24.9016    1.2330  -12.4066 C   0  0  0  0  0  0  0  0  0  0  0  0
   25.5801    2.0253  -13.2553 N   0  0  0  0  0  0  0  0  0  0  0  0
   26.8446    2.0953  -12.8774 N   0  0  0  0  0  0  0  0  0  0  0  0
   26.9336    1.3424  -11.7949 N   0  0  0  0  0  0  0  0  0  0  0  0
   25.7703    0.8013  -11.4783 N   0  0  0  0  0  0  0  0  0  0  0  0
  1  2  1  0
  2  3  2  0
  3  4  1  0
  4  5  2  0
  5  6  1  0
  6  7  2  0
  8  7  1  6
  9  8  1  6
  9 10  1  0
 10 11  1  1
 11 12  2  0
 12 13  1  0
 13 14  2  0
 14 15  1  0
 15 16  1  0
 15 17  2  0
 10 18  1  0
 18 19  1  0
 19 20  2  0
 20 21  1  0
 21 22  2  0
 22 23  1  0
  7  2  1  0
 23  8  1  0
 17 11  1  0
 23 19  1  0
M  END
$$$$
