_rank16
     RDKit          3D

 21 24  0  0  0  0  0  0  0  0999 V2000
   28.3789   -0.7932   -7.7159 C   0  0  0  0  0  0  0  0  0  0  0  0
   27.4277   -1.6785   -8.1539 C   0  0  0  0  0  0  0  0  0  0  0  0
   26.3583   -1.1954   -8.8860 C   0  0  0  0  0  0  0  0  0  0  0  0
   26.2100    0.1386   -9.1929 C   0  0  0  0  0  0  0  0  0  0  0  0
   25.0606    0.6234   -9.9738 C   0  0  2  0  0  0  0  0  0  0  0  0
   23.8022   -0.1640   -9.7180 C   0  0  0  0  0  0  0  0  0  0  0  0
   22.8139    0.2128  -10.8177 C   0  0  2  0  0  0  0  0  0  0  0  0
   21.4497   -0.2441  -10.5317 C   0  0  0  0  0  0  0  0  0  0  0  0
   21.0322   -1.5471  -10.7078 C   0  0  0  0  0  0  0  0  0  0  0  0
   19.7552   -1.9696  -10.4389 C   0  0  0  0  0  0  0  0  0  0  0  0
   18.8298   -1.0661   -9.9698 C   0  0  0  0  0  0  0  0  0  0  0  0
   19.2153    0.2497   -9.7816 C   0  0  0  0  0  0  0  0  0  0  0  0
   20.5219    0.6615  -10.0614 C   0  0  0  0  0  0  0  0  0  0  0  0
   23.3360   -0.3066  -12.0605 N   0  0  0  0  0  0  0  0  0  0  0  0
   22.7885   -0.9702  -13.0401 N   0  0  0  0  0  0  0  0  0  0  0  0
   23.7483   -1.1941  -13.9441 N   0  0  0  0  0  0  0  0  0  0  0  0
   24.8950   -0.6649  -13.5186 N   0  0  0  0  0  0  0  0  0  0  0  0
   24.6336   -0.1061  -12.3318 C   0  0  0  0  0  0  0  0  0  0  0  0
   25.4025    0.6092  -11.3652 N   0  0  0  0  0  0  0  0  0  0  0  0
   27.1790    1.0084   -8.7415 C   0  0  0  0  0  0  0  0  0  0  0  0
   28.2650    0.5571   -8.0045 C   0  0  0  0  0  0  0  0  0  0  0  0
  1  2  2  0
  2  3  1  0
  3  4  2  0
  5  4  1  1
  6  5  1  6
  6  7  1  0
  7  8  1  1
  8  9  2  0
  9 10  1  0
 10 11  2  0
 11 12  1  0
 12 13  2  0
  7 14  1  0
 14 15  1  0
 15 16  2  0
 16 17  1  0
 17 18  2  0
 18 19  1  0
  4 20  1  0
 20 21  2  0
 21  1  1  0
 19  5  1  0
 13  8  1  0
 18 14  1  0
M  END
$$$$
