_rank15
     RDKit          3D

 21 24  0  0  0  0  0  0  0  0999 V2000
   28.0189   -0.8249   -8.7963 C   0  0  0  0  0  0  0  0  0  0  0  0
   26.9220   -0.3623   -8.1158 C   0  0  0  0  0  0  0  0  0  0  0  0
   25.7245   -0.2334   -8.7960 C   0  0  0  0  0  0  0  0  0  0  0  0
   25.5892   -0.5508  -10.1289 C   0  0  0  0  0  0  0  0  0  0  0  0
   24.3017   -0.4029  -10.8263 C   0  0  2  0  0  0  0  0  0  0  0  0
   23.1995    0.0918   -9.9265 C   0  0  0  0  0  0  0  0  0  0  0  0
   21.8871   -0.1294  -10.6728 C   0  0  2  0  0  0  0  0  0  0  0  0
   20.7590    0.5729  -10.0516 C   0  0  0  0  0  0  0  0  0  0  0  0
   20.0169    1.5396  -10.6981 C   0  0  0  0  0  0  0  0  0  0  0  0
   18.9627    2.1936  -10.1129 C   0  0  0  0  0  0  0  0  0  0  0  0
   18.6115    1.8857   -8.8187 C   0  0  0  0  0  0  0  0  0  0  0  0
   19.3352    0.9203   -8.1408 C   0  0  0  0  0  0  0  0  0  0  0  0
   20.4069    0.2643   -8.7543 C   0  0  0  0  0  0  0  0  0  0  0  0
   21.6826   -1.5563  -10.7678 N   0  0  0  0  0  0  0  0  0  0  0  0
   20.6456   -2.3165  -10.5523 N   0  0  0  0  0  0  0  0  0  0  0  0
   21.0265   -3.5748  -10.7973 N   0  0  0  0  0  0  0  0  0  0  0  0
   22.3071   -3.5901  -11.1663 N   0  0  0  0  0  0  0  0  0  0  0  0
   22.7190   -2.3177  -11.1472 C   0  0  0  0  0  0  0  0  0  0  0  0
   23.9511   -1.6545  -11.4290 N   0  0  0  0  0  0  0  0  0  0  0  0
   26.7059   -1.0136  -10.7908 C   0  0  0  0  0  0  0  0  0  0  0  0
   27.9228   -1.1549  -10.1386 C   0  0  0  0  0  0  0  0  0  0  0  0
  1  2  2  0
  2  3  1  0
  3  4  2  0
  5  4  1  1
  6  5  1  6
  6  7  1  0
  7  8  1  1
  8  9  2  0
  9 10  1  0
 10 11  2  0
 11 12  1  0
 12 13  2  0
  7 14  1  0
 14 15  1  0
 15 16  2  0
 16 17  1  0
 17 18  2  0
 18 19  1  0
  4 20  1  0
 20 21  2  0
 21  1  1  0
 19  5  1  0
 13  8  1  0
 18 14  1  0
M  END
$$$$
