_rank3
     RDKit          3D

 23 26  0  0  0  0  0  0  0  0999 V2000
   27.3200   -1.6182  -10.9099 F   0  0  0  0  0  0  0  0  0  0  0  0
   27.1539   -1.0449   -9.7028 C   0  0  0  0  0  0  0  0  0  0  0  0
   28.1418   -1.3096   -8.7497 C   0  0  0  0  0  0  0  0  0  0  0  0
   28.0423   -0.7553   -7.4844 C   0  0  0  0  0  0  0  0  0  0  0  0
   26.9753    0.0455   -7.1856 C   0  0  0  0  0  0  0  0  0  0  0  0
   26.0100    0.2949   -8.1418 C   0  0  0  0  0  0  0  0  0  0  0  0
   26.0776   -0.2385   -9.4060 C   0  0  0  0  0  0  0  0  0  0  0  0
   25.0578    0.0093  -10.4424 C   0  0  2  0  0  0  0  0  0  0  0  0
   24.3280   -1.2547  -10.8337 C   0  0  0  0  0  0  0  0  0  0  0  0
   23.1720   -0.9942  -11.7386 C   0  0  1  0  0  0  0  0  0  0  0  0
   21.8655   -0.9034  -11.0787 C   0  0  0  0  0  0  0  0  0  0  0  0
   21.1493   -2.0290  -10.7332 C   0  0  0  0  0  0  0  0  0  0  0  0
   19.9159   -1.9668  -10.1169 C   0  0  0  0  0  0  0  0  0  0  0  0
   19.3408   -0.7387   -9.8168 C   0  0  0  0  0  0  0  0  0  0  0  0
   20.0449    0.3913  -10.1563 C   0  0  0  0  0  0  0  0  0  0  0  0
   19.2433    2.0856   -9.7383 Br  0  0  0  0  0  0  0  0  0  0  0  0
   21.2731    0.3119  -10.7703 C   0  0  0  0  0  0  0  0  0  0  0  0
   23.4620    0.1771  -12.5512 N   0  0  0  0  0  0  0  0  0  0  0  0
   24.7722    0.7093  -12.6873 C   0  0  0  0  0  0  0  0  0  0  0  0
   25.4573    1.3164  -13.6725 N   0  0  0  0  0  0  0  0  0  0  0  0
   26.6736    1.6104  -13.2472 N   0  0  0  0  0  0  0  0  0  0  0  0
   26.7267    1.1799  -11.9988 N   0  0  0  0  0  0  0  0  0  0  0  0
   25.5873    0.6256  -11.6236 N   0  0  0  0  0  0  0  0  0  0  0  0
  1  2  1  0
  2  3  2  0
  3  4  1  0
  4  5  2  0
  5  6  1  0
  6  7  2  0
  8  7  1  1
  9  8  1  6
  9 10  1  0
 10 11  1  1
 11 12  2  0
 12 13  1  0
 13 14  2  0
 14 15  1  0
 15 16  1  0
 15 17  2  0
 10 18  1  0
 18 19  1  0
 19 20  2  0
 20 21  1  0
 21 22  2  0
 22 23  1  0
  7  2  1  0
 23  8  1  0
 17 11  1  0
 23 19  1  0
M  END
$$$$
