_rank12
     RDKit          3D

 21 24  0  0  0  0  0  0  0  0999 V2000
   28.7310   -1.5353   -8.0954 C   0  0  0  0  0  0  0  0  0  0  0  0
   28.1709   -1.9128   -9.2889 C   0  0  0  0  0  0  0  0  0  0  0  0
   27.0430   -1.2466   -9.7329 C   0  0  0  0  0  0  0  0  0  0  0  0
   26.4597   -0.2197   -9.0252 C   0  0  0  0  0  0  0  0  0  0  0  0
   25.2590    0.4706   -9.5231 C   0  0  2  0  0  0  0  0  0  0  0  0
   24.0920   -0.4583   -9.7337 C   0  0  0  0  0  0  0  0  0  0  0  0
   23.0600    0.3081  -10.5558 C   0  0  2  0  0  0  0  0  0  0  0  0
   21.7536   -0.3582  -10.5848 C   0  0  0  0  0  0  0  0  0  0  0  0
   21.5787   -1.6996  -10.3145 C   0  0  0  0  0  0  0  0  0  0  0  0
   20.3547   -2.3183  -10.3430 C   0  0  0  0  0  0  0  0  0  0  0  0
   19.2339   -1.5835  -10.6540 C   0  0  0  0  0  0  0  0  0  0  0  0
   19.3736   -0.2348  -10.9306 C   0  0  0  0  0  0  0  0  0  0  0  0
   20.6299    0.3782  -10.8966 C   0  0  0  0  0  0  0  0  0  0  0  0
   23.6224    0.5091  -11.8712 N   0  0  0  0  0  0  0  0  0  0  0  0
   23.1385    0.3550  -13.0719 N   0  0  0  0  0  0  0  0  0  0  0  0
   24.1083    0.6904  -13.9294 N   0  0  0  0  0  0  0  0  0  0  0  0
   25.1973    1.0538  -13.2526 N   0  0  0  0  0  0  0  0  0  0  0  0
   24.8896    0.9390  -11.9559 C   0  0  0  0  0  0  0  0  0  0  0  0
   25.5881    1.1657  -10.7321 N   0  0  0  0  0  0  0  0  0  0  0  0
   27.0411    0.1412   -7.8289 C   0  0  0  0  0  0  0  0  0  0  0  0
   28.1732   -0.5062   -7.3541 C   0  0  0  0  0  0  0  0  0  0  0  0
  1  2  2  0
  2  3  1  0
  3  4  2  0
  5  4  1  6
  6  5  1  6
  6  7  1  0
  7  8  1  6
  8  9  2  0
  9 10  1  0
 10 11  2  0
 11 12  1  0
 12 13  2  0
  7 14  1  0
 14 15  1  0
 15 16  2  0
 16 17  1  0
 17 18  2  0
 18 19  1  0
  4 20  1  0
 20 21  2  0
 21  1  1  0
 19  5  1  0
 13  8  1  0
 18 14  1  0
M  END
$$$$
