_rank8
     RDKit          3D

 21 24  0  0  0  0  0  0  0  0999 V2000
   18.7885    0.5904  -10.1546 C   0  0  0  0  0  0  0  0  0  0  0  0
   19.1260   -0.6532   -9.6856 C   0  0  0  0  0  0  0  0  0  0  0  0
   20.4036   -1.1275   -9.9221 C   0  0  0  0  0  0  0  0  0  0  0  0
   21.3504   -0.4015  -10.6094 C   0  0  0  0  0  0  0  0  0  0  0  0
   22.7023   -0.9328  -10.8459 C   0  0  2  0  0  0  0  0  0  0  0  0
   23.7273   -0.3774   -9.8920 C   0  0  0  0  0  0  0  0  0  0  0  0
   25.0980   -0.7354  -10.4585 C   0  0  2  0  0  0  0  0  0  0  0  0
   26.1812   -0.5232   -9.4924 C   0  0  0  0  0  0  0  0  0  0  0  0
   27.3729    0.0947   -9.8107 C   0  0  0  0  0  0  0  0  0  0  0  0
   28.3830    0.2910   -8.9037 C   0  0  0  0  0  0  0  0  0  0  0  0
   28.2204   -0.1419   -7.6079 C   0  0  0  0  0  0  0  0  0  0  0  0
   27.0368   -0.7660   -7.2546 C   0  0  0  0  0  0  0  0  0  0  0  0
   26.0184   -0.9570   -8.1935 C   0  0  0  0  0  0  0  0  0  0  0  0
   25.2699    0.0213  -11.6770 N   0  0  0  0  0  0  0  0  0  0  0  0
   26.2595    0.7292  -12.1452 N   0  0  0  0  0  0  0  0  0  0  0  0
   25.8679    1.2120  -13.3293 N   0  0  0  0  0  0  0  0  0  0  0  0
   24.6285    0.7988  -13.5926 N   0  0  0  0  0  0  0  0  0  0  0  0
   24.2532    0.0487  -12.5506 C   0  0  0  0  0  0  0  0  0  0  0  0
   23.0730   -0.6764  -12.2060 N   0  0  0  0  0  0  0  0  0  0  0  0
   20.9870    0.8453  -11.0705 C   0  0  0  0  0  0  0  0  0  0  0  0
   19.7136    1.3516  -10.8507 C   0  0  0  0  0  0  0  0  0  0  0  0
  1  2  2  0
  2  3  1  0
  3  4  2  0
  5  4  1  1
  6  5  1  6
  6  7  1  0
  7  8  1  1
  8  9  2  0
  9 10  1  0
 10 11  2  0
 11 12  1  0
 12 13  2  0
  7 14  1  0
 14 15  1  0
 15 16  2  0
 16 17  1  0
 17 18  2  0
 18 19  1  0
  4 20  1  0
 20 21  2  0
 21  1  1  0
 19  5  1  0
 13  8  1  0
 18 14  1  0
M  END
$$$$
