_rank20
     RDKit          3D

 21 24  0  0  0  0  0  0  0  0999 V2000
   28.5134   -0.9883   -8.9699 C   0  0  0  0  0  0  0  0  0  0  0  0
   27.7569   -1.7680   -9.8067 C   0  0  0  0  0  0  0  0  0  0  0  0
   26.4942   -1.3292  -10.1617 C   0  0  0  0  0  0  0  0  0  0  0  0
   25.9658   -0.1411   -9.7089 C   0  0  0  0  0  0  0  0  0  0  0  0
   24.6183    0.2996  -10.1038 C   0  0  2  0  0  0  0  0  0  0  0  0
   23.5226   -0.4771   -9.4219 C   0  0  0  0  0  0  0  0  0  0  0  0
   22.2281   -0.1602  -10.1648 C   0  0  2  0  0  0  0  0  0  0  0  0
   21.0354   -0.6056   -9.4363 C   0  0  0  0  0  0  0  0  0  0  0  0
   20.7589   -1.9305   -9.1693 C   0  0  0  0  0  0  0  0  0  0  0  0
   19.6421   -2.3422   -8.4876 C   0  0  0  0  0  0  0  0  0  0  0  0
   18.7407   -1.4044   -8.0394 C   0  0  0  0  0  0  0  0  0  0  0  0
   18.9874   -0.0660   -8.2902 C   0  0  0  0  0  0  0  0  0  0  0  0
   20.1317    0.3344   -8.9870 C   0  0  0  0  0  0  0  0  0  0  0  0
   22.3363   -0.7413  -11.4829 N   0  0  0  0  0  0  0  0  0  0  0  0
   21.5177   -1.4560  -12.2033 N   0  0  0  0  0  0  0  0  0  0  0  0
   22.1431   -1.7233  -13.3548 N   0  0  0  0  0  0  0  0  0  0  0  0
   23.3553   -1.1697  -13.3439 N   0  0  0  0  0  0  0  0  0  0  0  0
   23.4755   -0.5514  -12.1639 C   0  0  0  0  0  0  0  0  0  0  0  0
   24.4988    0.2149  -11.5291 N   0  0  0  0  0  0  0  0  0  0  0  0
   26.7455    0.6246   -8.8691 C   0  0  0  0  0  0  0  0  0  0  0  0
   28.0168    0.2140   -8.4930 C   0  0  0  0  0  0  0  0  0  0  0  0
  1  2  2  0
  2  3  1  0
  3  4  2  0
  5  4  1  6
  6  5  1  6
  6  7  1  0
  7  8  1  1
  8  9  2  0
  9 10  1  0
 10 11  2  0
 11 12  1  0
 12 13  2  0
  7 14  1  0
 14 15  1  0
 15 16  2  0
 16 17  1  0
 17 18  2  0
 18 19  1  0
  4 20  1  0
 20 21  2  0
 21  1  1  0
 19  5  1  0
 13  8  1  0
 18 14  1  0
M  END
$$$$
