_rank7
     RDKit          3D

 23 26  0  0  0  0  0  0  0  0999 V2000
   27.5636    0.9341  -10.8857 F   0  0  0  0  0  0  0  0  0  0  0  0
   27.1606    0.4564   -9.6931 C   0  0  0  0  0  0  0  0  0  0  0  0
   28.1089    0.4732   -8.6660 C   0  0  0  0  0  0  0  0  0  0  0  0
   27.7701   -0.0009   -7.4097 C   0  0  0  0  0  0  0  0  0  0  0  0
   26.5082   -0.4798   -7.1919 C   0  0  0  0  0  0  0  0  0  0  0  0
   25.5857   -0.4874   -8.2202 C   0  0  0  0  0  0  0  0  0  0  0  0
   25.8883   -0.0250   -9.4779 C   0  0  0  0  0  0  0  0  0  0  0  0
   24.9225   -0.0268  -10.5928 C   0  0  2  0  0  0  0  0  0  0  0  0
   23.9519   -1.1813  -10.5006 C   0  0  0  0  0  0  0  0  0  0  0  0
   22.8571   -1.0936  -11.5089 C   0  0  1  0  0  0  0  0  0  0  0  0
   21.6039   -0.5044  -11.0261 C   0  0  0  0  0  0  0  0  0  0  0  0
   21.5702    0.7387  -10.4321 C   0  0  0  0  0  0  0  0  0  0  0  0
   20.4034    1.3097   -9.9657 C   0  0  0  0  0  0  0  0  0  0  0  0
   19.1949    0.6351  -10.0818 C   0  0  0  0  0  0  0  0  0  0  0  0
   19.2151   -0.6053  -10.6724 C   0  0  0  0  0  0  0  0  0  0  0  0
   17.5405   -1.5320  -10.8293 Br  0  0  0  0  0  0  0  0  0  0  0  0
   20.3868   -1.1603  -11.1319 C   0  0  0  0  0  0  0  0  0  0  0  0
   23.3608   -0.4216  -12.6968 N   0  0  0  0  0  0  0  0  0  0  0  0
   24.7482   -0.2430  -12.9452 C   0  0  0  0  0  0  0  0  0  0  0  0
   25.5252   -0.2201  -14.0426 N   0  0  0  0  0  0  0  0  0  0  0  0
   26.7817   -0.0132  -13.6887 N   0  0  0  0  0  0  0  0  0  0  0  0
   26.7669    0.0898  -12.3712 N   0  0  0  0  0  0  0  0  0  0  0  0
   25.5460   -0.0448  -11.8836 N   0  0  0  0  0  0  0  0  0  0  0  0
  1  2  1  0
  2  3  2  0
  3  4  1  0
  4  5  2  0
  5  6  1  0
  6  7  2  0
  8  7  1  1
  9  8  1  6
  9 10  1  0
 10 11  1  1
 11 12  2  0
 12 13  1  0
 13 14  2  0
 14 15  1  0
 15 16  1  0
 15 17  2  0
 10 18  1  0
 18 19  1  0
 19 20  2  0
 20 21  1  0
 21 22  2  0
 22 23  1  0
  7  2  1  0
 23  8  1  0
 17 11  1  0
 23 19  1  0
M  END
$$$$
