_rank14
     RDKit          3D

 23 26  0  0  0  0  0  0  0  0999 V2000
   25.3468    1.0987   -7.8735 F   0  0  0  0  0  0  0  0  0  0  0  0
   26.1227    0.0558   -8.2251 C   0  0  0  0  0  0  0  0  0  0  0  0
   27.0082   -0.4143   -7.2507 C   0  0  0  0  0  0  0  0  0  0  0  0
   27.8391   -1.4848   -7.5361 C   0  0  0  0  0  0  0  0  0  0  0  0
   27.7806   -2.0680   -8.7713 C   0  0  0  0  0  0  0  0  0  0  0  0
   26.8985   -1.5885   -9.7201 C   0  0  0  0  0  0  0  0  0  0  0  0
   26.0604   -0.5289   -9.4705 C   0  0  0  0  0  0  0  0  0  0  0  0
   25.1135    0.0039  -10.4680 C   0  0  2  0  0  0  0  0  0  0  0  0
   24.1590   -1.0561  -10.9667 C   0  0  0  0  0  0  0  0  0  0  0  0
   23.0799   -0.4973  -11.8306 C   0  0  1  0  0  0  0  0  0  0  0  0
   21.8101   -0.2214  -11.1507 C   0  0  0  0  0  0  0  0  0  0  0  0
   21.1186    0.9527  -11.3571 C   0  0  0  0  0  0  0  0  0  0  0  0
   19.9253    1.2353  -10.7238 C   0  0  0  0  0  0  0  0  0  0  0  0
   19.3674    0.3246   -9.8359 C   0  0  0  0  0  0  0  0  0  0  0  0
   20.0472   -0.8500   -9.6214 C   0  0  0  0  0  0  0  0  0  0  0  0
   19.2698   -2.1041   -8.3923 Br  0  0  0  0  0  0  0  0  0  0  0  0
   21.2357   -1.1163  -10.2606 C   0  0  0  0  0  0  0  0  0  0  0  0
   23.5931    0.6680  -12.5343 N   0  0  0  0  0  0  0  0  0  0  0  0
   24.9816    0.9515  -12.6350 C   0  0  0  0  0  0  0  0  0  0  0  0
   25.7764    1.5063  -13.5672 N   0  0  0  0  0  0  0  0  0  0  0  0
   27.0236    1.5226  -13.1301 N   0  0  0  0  0  0  0  0  0  0  0  0
   26.9853    0.9754  -11.9277 N   0  0  0  0  0  0  0  0  0  0  0  0
   25.7586    0.6155  -11.5928 N   0  0  0  0  0  0  0  0  0  0  0  0
  1  2  1  0
  2  3  2  0
  3  4  1  0
  4  5  2  0
  5  6  1  0
  6  7  2  0
  8  7  1  1
  9  8  1  6
  9 10  1  0
 10 11  1  1
 11 12  2  0
 12 13  1  0
 13 14  2  0
 14 15  1  0
 15 16  1  0
 15 17  2  0
 10 18  1  0
 18 19  1  0
 19 20  2  0
 20 21  1  0
 21 22  2  0
 22 23  1  0
  7  2  1  0
 23  8  1  0
 17 11  1  0
 23 19  1  0
M  END
$$$$
