_rank5
     RDKit          3D

 21 24  0  0  0  0  0  0  0  0999 V2000
   18.9937    0.7482   -9.9920 C   0  0  0  0  0  0  0  0  0  0  0  0
   19.8050    0.4921   -8.9165 C   0  0  0  0  0  0  0  0  0  0  0  0
   21.0512   -0.0637   -9.1427 C   0  0  0  0  0  0  0  0  0  0  0  0
   21.5103   -0.3704  -10.4040 C   0  0  0  0  0  0  0  0  0  0  0  0
   22.8415   -0.9618  -10.6136 C   0  0  2  0  0  0  0  0  0  0  0  0
   23.8901   -0.3888   -9.6964 C   0  0  0  0  0  0  0  0  0  0  0  0
   25.2446   -0.8270  -10.2455 C   0  0  2  0  0  0  0  0  0  0  0  0
   26.3395   -0.5978   -9.2966 C   0  0  0  0  0  0  0  0  0  0  0  0
   27.1739    0.4995   -9.3499 C   0  0  0  0  0  0  0  0  0  0  0  0
   28.1965    0.7095   -8.4601 C   0  0  0  0  0  0  0  0  0  0  0  0
   28.4182   -0.2066   -7.4579 C   0  0  0  0  0  0  0  0  0  0  0  0
   27.5994   -1.3192   -7.3754 C   0  0  0  0  0  0  0  0  0  0  0  0
   26.5618   -1.5160   -8.2918 C   0  0  0  0  0  0  0  0  0  0  0  0
   25.4367   -0.1482  -11.5062 N   0  0  0  0  0  0  0  0  0  0  0  0
   26.4481    0.4963  -12.0175 N   0  0  0  0  0  0  0  0  0  0  0  0
   26.0677    0.9236  -13.2262 N   0  0  0  0  0  0  0  0  0  0  0  0
   24.8133    0.5398  -13.4615 N   0  0  0  0  0  0  0  0  0  0  0  0
   24.4171   -0.1353  -12.3768 C   0  0  0  0  0  0  0  0  0  0  0  0
   23.2141   -0.7973  -11.9873 N   0  0  0  0  0  0  0  0  0  0  0  0
   20.6765   -0.1037  -11.4684 C   0  0  0  0  0  0  0  0  0  0  0  0
   19.4199    0.4537  -11.2770 C   0  0  0  0  0  0  0  0  0  0  0  0
  1  2  2  0
  2  3  1  0
  3  4  2  0
  5  4  1  6
  6  5  1  6
  6  7  1  0
  7  8  1  1
  8  9  2  0
  9 10  1  0
 10 11  2  0
 11 12  1  0
 12 13  2  0
  7 14  1  0
 14 15  1  0
 15 16  2  0
 16 17  1  0
 17 18  2  0
 18 19  1  0
  4 20  1  0
 20 21  2  0
 21  1  1  0
 19  5  1  0
 13  8  1  0
 18 14  1  0
M  END
$$$$
