_rank1
     RDKit          3D

 23 26  0  0  0  0  0  0  0  0999 V2000
   27.1439    1.8423   -9.2794 F   0  0  0  0  0  0  0  0  0  0  0  0
   27.2443    0.5463   -8.9279 C   0  0  0  0  0  0  0  0  0  0  0  0
   28.2707    0.2238   -8.0352 C   0  0  0  0  0  0  0  0  0  0  0  0
   28.4382   -1.0884   -7.6254 C   0  0  0  0  0  0  0  0  0  0  0  0
   27.5937   -2.0523   -8.1017 C   0  0  0  0  0  0  0  0  0  0  0  0
   26.5856   -1.7128   -8.9830 C   0  0  0  0  0  0  0  0  0  0  0  0
   26.3913   -0.4215   -9.4100 C   0  0  0  0  0  0  0  0  0  0  0  0
   25.3254   -0.0349  -10.3533 C   0  0  2  0  0  0  0  0  0  0  0  0
   24.4672   -1.2126  -10.7533 C   0  0  0  0  0  0  0  0  0  0  0  0
   23.2762   -0.8100  -11.5548 C   0  0  1  0  0  0  0  0  0  0  0  0
   22.0314   -0.6538  -10.7955 C   0  0  0  0  0  0  0  0  0  0  0  0
   21.8285   -1.3026   -9.5966 C   0  0  0  0  0  0  0  0  0  0  0  0
   20.6631   -1.1745   -8.8684 C   0  0  0  0  0  0  0  0  0  0  0  0
   19.6305   -0.3682   -9.3298 C   0  0  0  0  0  0  0  0  0  0  0  0
   19.8204    0.2842  -10.5240 C   0  0  0  0  0  0  0  0  0  0  0  0
   18.3884    1.3969  -11.1556 Br  0  0  0  0  0  0  0  0  0  0  0  0
   20.9881    0.1456  -11.2376 C   0  0  0  0  0  0  0  0  0  0  0  0
   23.6048    0.3791  -12.3257 N   0  0  0  0  0  0  0  0  0  0  0  0
   24.9420    0.8127  -12.5318 C   0  0  0  0  0  0  0  0  0  0  0  0
   25.6043    1.4189  -13.5330 N   0  0  0  0  0  0  0  0  0  0  0  0
   26.8677    1.5908  -13.1852 N   0  0  0  0  0  0  0  0  0  0  0  0
   26.9724    1.0868  -11.9680 N   0  0  0  0  0  0  0  0  0  0  0  0
   25.8200    0.6040  -11.5376 N   0  0  0  0  0  0  0  0  0  0  0  0
  1  2  1  0
  2  3  2  0
  3  4  1  0
  4  5  2  0
  5  6  1  0
  6  7  2  0
  8  7  1  1
  9  8  1  6
  9 10  1  0
 10 11  1  1
 11 12  2  0
 12 13  1  0
 13 14  2  0
 14 15  1  0
 15 16  1  0
 15 17  2  0
 10 18  1  0
 18 19  1  0
 19 20  2  0
 20 21  1  0
 21 22  2  0
 22 23  1  0
  7  2  1  0
 23  8  1  0
 17 11  1  0
 23 19  1  0
M  END
$$$$
