_rank14
     RDKit          3D

 21 24  0  0  0  0  0  0  0  0999 V2000
   28.0985   -0.8855   -8.7142 C   0  0  0  0  0  0  0  0  0  0  0  0
   27.7929   -1.5175   -9.8922 C   0  0  0  0  0  0  0  0  0  0  0  0
   26.5970   -1.2141  -10.5174 C   0  0  0  0  0  0  0  0  0  0  0  0
   25.7008   -0.3031  -10.0050 C   0  0  0  0  0  0  0  0  0  0  0  0
   24.4353   -0.0010  -10.6930 C   0  0  2  0  0  0  0  0  0  0  0  0
   23.2643    0.1020   -9.7510 C   0  0  0  0  0  0  0  0  0  0  0  0
   22.0030    0.0721  -10.6091 C   0  0  2  0  0  0  0  0  0  0  0  0
   20.8025    0.4622   -9.8621 C   0  0  0  0  0  0  0  0  0  0  0  0
   20.1176   -0.3933   -9.0242 C   0  0  0  0  0  0  0  0  0  0  0  0
   18.9952   -0.0238   -8.3276 C   0  0  0  0  0  0  0  0  0  0  0  0
   18.5121    1.2579   -8.4564 C   0  0  0  0  0  0  0  0  0  0  0  0
   19.1752    2.1423   -9.2891 C   0  0  0  0  0  0  0  0  0  0  0  0
   20.3181    1.7470   -9.9912 C   0  0  0  0  0  0  0  0  0  0  0  0
   21.9069   -1.2493  -11.1851 N   0  0  0  0  0  0  0  0  0  0  0  0
   20.9201   -2.0935  -11.2996 N   0  0  0  0  0  0  0  0  0  0  0  0
   21.4012   -3.1738  -11.9239 N   0  0  0  0  0  0  0  0  0  0  0  0
   22.6934   -2.9942  -12.1960 N   0  0  0  0  0  0  0  0  0  0  0  0
   23.0105   -1.7812  -11.7299 C   0  0  0  0  0  0  0  0  0  0  0  0
   24.2016   -0.9953  -11.6978 N   0  0  0  0  0  0  0  0  0  0  0  0
   26.0306    0.3187   -8.8201 C   0  0  0  0  0  0  0  0  0  0  0  0
   27.2223    0.0376   -8.1666 C   0  0  0  0  0  0  0  0  0  0  0  0
  1  2  2  0
  2  3  1  0
  3  4  2  0
  5  4  1  1
  6  5  1  6
  6  7  1  0
  7  8  1  1
  8  9  2  0
  9 10  1  0
 10 11  2  0
 11 12  1  0
 12 13  2  0
  7 14  1  0
 14 15  1  0
 15 16  2  0
 16 17  1  0
 17 18  2  0
 18 19  1  0
  4 20  1  0
 20 21  2  0
 21  1  1  0
 19  5  1  0
 13  8  1  0
 18 14  1  0
M  END
$$$$
