_rank3
     RDKit          3D

 21 24  0  0  0  0  0  0  0  0999 V2000
   19.0420    0.4211  -10.2226 C   0  0  0  0  0  0  0  0  0  0  0  0
   19.2751   -0.9302  -10.2297 C   0  0  0  0  0  0  0  0  0  0  0  0
   20.5646   -1.3803  -10.4486 C   0  0  0  0  0  0  0  0  0  0  0  0
   21.6238   -0.5263  -10.6597 C   0  0  0  0  0  0  0  0  0  0  0  0
   22.9855   -1.0348  -10.8903 C   0  0  2  0  0  0  0  0  0  0  0  0
   23.9856   -0.5093   -9.8940 C   0  0  0  0  0  0  0  0  0  0  0  0
   25.3709   -0.8310  -10.4467 C   0  0  2  0  0  0  0  0  0  0  0  0
   26.4325   -0.6484   -9.4511 C   0  0  0  0  0  0  0  0  0  0  0  0
   27.0123    0.5723   -9.1738 C   0  0  0  0  0  0  0  0  0  0  0  0
   28.0049    0.7381   -8.2418 C   0  0  0  0  0  0  0  0  0  0  0  0
   28.4591   -0.3532   -7.5378 C   0  0  0  0  0  0  0  0  0  0  0  0
   27.8991   -1.5932   -7.7911 C   0  0  0  0  0  0  0  0  0  0  0  0
   26.8879   -1.7423   -8.7454 C   0  0  0  0  0  0  0  0  0  0  0  0
   25.5592   -0.0235  -11.6297 N   0  0  0  0  0  0  0  0  0  0  0  0
   26.5506    0.7123  -12.0485 N   0  0  0  0  0  0  0  0  0  0  0  0
   26.1777    1.2395  -13.2196 N   0  0  0  0  0  0  0  0  0  0  0  0
   24.9481    0.8258  -13.5245 N   0  0  0  0  0  0  0  0  0  0  0  0
   24.5598    0.0302  -12.5219 C   0  0  0  0  0  0  0  0  0  0  0  0
   23.3805   -0.7194  -12.2310 N   0  0  0  0  0  0  0  0  0  0  0  0
   21.3640    0.8271  -10.6479 C   0  0  0  0  0  0  0  0  0  0  0  0
   20.0820    1.3125  -10.4312 C   0  0  0  0  0  0  0  0  0  0  0  0
  1  2  2  0
  2  3  1  0
  3  4  2  0
  5  4  1  1
  6  5  1  6
  6  7  1  0
  7  8  1  1
  8  9  2  0
  9 10  1  0
 10 11  2  0
 11 12  1  0
 12 13  2  0
  7 14  1  0
 14 15  1  0
 15 16  2  0
 16 17  1  0
 17 18  2  0
 18 19  1  0
  4 20  1  0
 20 21  2  0
 21  1  1  0
 19  5  1  0
 13  8  1  0
 18 14  1  0
M  END
$$$$
