_rank17
     RDKit          3D

 23 26  0  0  0  0  0  0  0  0999 V2000
   26.6302   -0.0587   -8.0199 F   0  0  0  0  0  0  0  0  0  0  0  0
   26.7819    0.5281   -9.2223 C   0  0  0  0  0  0  0  0  0  0  0  0
   27.7572    1.5262   -9.3063 C   0  0  0  0  0  0  0  0  0  0  0  0
   27.9736    2.1763  -10.5098 C   0  0  0  0  0  0  0  0  0  0  0  0
   27.2273    1.8306  -11.6019 C   0  0  0  0  0  0  0  0  0  0  0  0
   26.2687    0.8414  -11.4979 C   0  0  0  0  0  0  0  0  0  0  0  0
   26.0282    0.1766  -10.3200 C   0  0  0  0  0  0  0  0  0  0  0  0
   25.0077   -0.8795  -10.1828 C   0  0  2  0  0  0  0  0  0  0  0  0
   23.8954   -0.4750   -9.2433 C   0  0  0  0  0  0  0  0  0  0  0  0
   22.7659   -1.4482   -9.2373 C   0  0  1  0  0  0  0  0  0  0  0  0
   21.6354   -1.1042  -10.1059 C   0  0  0  0  0  0  0  0  0  0  0  0
   21.5270   -1.6050  -11.3852 C   0  0  0  0  0  0  0  0  0  0  0  0
   20.4751   -1.2902  -12.2215 C   0  0  0  0  0  0  0  0  0  0  0  0
   19.4660   -0.4379  -11.7921 C   0  0  0  0  0  0  0  0  0  0  0  0
   19.5625    0.0683  -10.5184 C   0  0  0  0  0  0  0  0  0  0  0  0
   18.1638    1.2462   -9.9319 Br  0  0  0  0  0  0  0  0  0  0  0  0
   20.6177   -0.2554   -9.6976 C   0  0  0  0  0  0  0  0  0  0  0  0
   23.2864   -2.7788   -9.5107 N   0  0  0  0  0  0  0  0  0  0  0  0
   24.6683   -3.0948   -9.4157 C   0  0  0  0  0  0  0  0  0  0  0  0
   25.3757   -4.1785   -9.0501 N   0  0  0  0  0  0  0  0  0  0  0  0
   26.6672   -3.9166   -9.1514 N   0  0  0  0  0  0  0  0  0  0  0  0
   26.7436   -2.6688   -9.5803 N   0  0  0  0  0  0  0  0  0  0  0  0
   25.5464   -2.1365   -9.7524 N   0  0  0  0  0  0  0  0  0  0  0  0
  1  2  1  0
  2  3  2  0
  3  4  1  0
  4  5  2  0
  5  6  1  0
  6  7  2  0
  8  7  1  1
  9  8  1  6
  9 10  1  0
 10 11  1  6
 11 12  2  0
 12 13  1  0
 13 14  2  0
 14 15  1  0
 15 16  1  0
 15 17  2  0
 10 18  1  0
 18 19  1  0
 19 20  2  0
 20 21  1  0
 21 22  2  0
 22 23  1  0
  7  2  1  0
 23  8  1  0
 17 11  1  0
 23 19  1  0
M  END
$$$$
