_rank10
     RDKit          3D

 23 26  0  0  0  0  0  0  0  0999 V2000
   25.1731   -0.1149   -7.6951 F   0  0  0  0  0  0  0  0  0  0  0  0
   26.3213   -0.5117   -8.2760 C   0  0  0  0  0  0  0  0  0  0  0  0
   27.3536   -0.8915   -7.4131 C   0  0  0  0  0  0  0  0  0  0  0  0
   28.5654   -1.3127   -7.9345 C   0  0  0  0  0  0  0  0  0  0  0  0
   28.7344   -1.3511   -9.2907 C   0  0  0  0  0  0  0  0  0  0  0  0
   27.7017   -0.9718  -10.1261 C   0  0  0  0  0  0  0  0  0  0  0  0
   26.4873   -0.5491   -9.6426 C   0  0  0  0  0  0  0  0  0  0  0  0
   25.3713   -0.1351  -10.5137 C   0  0  2  0  0  0  0  0  0  0  0  0
   24.5851   -1.3181  -11.0291 C   0  0  0  0  0  0  0  0  0  0  0  0
   23.3473   -0.9133  -11.7551 C   0  0  1  0  0  0  0  0  0  0  0  0
   22.1164   -0.9332  -10.9580 C   0  0  0  0  0  0  0  0  0  0  0  0
   21.7620   -2.0288  -10.2009 C   0  0  0  0  0  0  0  0  0  0  0  0
   20.6059   -2.0713   -9.4480 C   0  0  0  0  0  0  0  0  0  0  0  0
   19.7399   -0.9857   -9.4272 C   0  0  0  0  0  0  0  0  0  0  0  0
   20.0820    0.1130  -10.1781 C   0  0  0  0  0  0  0  0  0  0  0  0
   18.8796    1.6100  -10.1445 Br  0  0  0  0  0  0  0  0  0  0  0  0
   21.2379    0.1392  -10.9231 C   0  0  0  0  0  0  0  0  0  0  0  0
   23.5719    0.3758  -12.3907 N   0  0  0  0  0  0  0  0  0  0  0  0
   24.8699    0.9242  -12.5723 C   0  0  0  0  0  0  0  0  0  0  0  0
   25.4607    1.6855  -13.5103 N   0  0  0  0  0  0  0  0  0  0  0  0
   26.7187    1.9065  -13.1704 N   0  0  0  0  0  0  0  0  0  0  0  0
   26.8917    1.2767  -12.0215 N   0  0  0  0  0  0  0  0  0  0  0  0
   25.7876    0.6674  -11.6264 N   0  0  0  0  0  0  0  0  0  0  0  0
  1  2  1  0
  2  3  2  0
  3  4  1  0
  4  5  2  0
  5  6  1  0
  6  7  2  0
  8  7  1  6
  9  8  1  6
  9 10  1  0
 10 11  1  1
 11 12  2  0
 12 13  1  0
 13 14  2  0
 14 15  1  0
 15 16  1  0
 15 17  2  0
 10 18  1  0
 18 19  1  0
 19 20  2  0
 20 21  1  0
 21 22  2  0
 22 23  1  0
  7  2  1  0
 23  8  1  0
 17 11  1  0
 23 19  1  0
M  END
$$$$
