_rank6
     RDKit          3D

 21 24  0  0  0  0  0  0  0  0999 V2000
   19.0093    0.7535  -10.1770 C   0  0  0  0  0  0  0  0  0  0  0  0
   20.1401    1.4975   -9.9576 C   0  0  0  0  0  0  0  0  0  0  0  0
   21.3737    0.8895  -10.1053 C   0  0  0  0  0  0  0  0  0  0  0  0
   21.5123   -0.4326  -10.4638 C   0  0  0  0  0  0  0  0  0  0  0  0
   22.8388   -1.0524  -10.6132 C   0  0  2  0  0  0  0  0  0  0  0  0
   23.9062   -0.3570   -9.8093 C   0  0  0  0  0  0  0  0  0  0  0  0
   25.2490   -0.8741  -10.3170 C   0  0  2  0  0  0  0  0  0  0  0  0
   26.3631   -0.5145   -9.4332 C   0  0  0  0  0  0  0  0  0  0  0  0
   27.0773    0.6599   -9.5504 C   0  0  0  0  0  0  0  0  0  0  0  0
   28.1186    0.9918   -8.7215 C   0  0  0  0  0  0  0  0  0  0  0  0
   28.4850    0.1252   -7.7176 C   0  0  0  0  0  0  0  0  0  0  0  0
   27.7894   -1.0623   -7.5719 C   0  0  0  0  0  0  0  0  0  0  0  0
   26.7305   -1.3831   -8.4269 C   0  0  0  0  0  0  0  0  0  0  0  0
   25.4154   -0.3842  -11.6658 N   0  0  0  0  0  0  0  0  0  0  0  0
   26.4163    0.1768  -12.2848 N   0  0  0  0  0  0  0  0  0  0  0  0
   26.0114    0.4272  -13.5345 N   0  0  0  0  0  0  0  0  0  0  0  0
   24.7522    0.0178  -13.6866 N   0  0  0  0  0  0  0  0  0  0  0  0
   24.3782   -0.4932  -12.5084 C   0  0  0  0  0  0  0  0  0  0  0  0
   23.1831   -1.0883  -12.0035 N   0  0  0  0  0  0  0  0  0  0  0  0
   20.3611   -1.1591  -10.6788 C   0  0  0  0  0  0  0  0  0  0  0  0
   19.1075   -0.5802  -10.5392 C   0  0  0  0  0  0  0  0  0  0  0  0
  1  2  2  0
  2  3  1  0
  3  4  2  0
  5  4  1  6
  6  5  1  6
  6  7  1  0
  7  8  1  1
  8  9  2  0
  9 10  1  0
 10 11  2  0
 11 12  1  0
 12 13  2  0
  7 14  1  0
 14 15  1  0
 15 16  2  0
 16 17  1  0
 17 18  2  0
 18 19  1  0
  4 20  1  0
 20 21  2  0
 21  1  1  0
 19  5  1  0
 13  8  1  0
 18 14  1  0
M  END
$$$$
