_rank2
     RDKit          3D

 23 26  0  0  0  0  0  0  0  0999 V2000
   27.2582   -1.6657  -11.2734 F   0  0  0  0  0  0  0  0  0  0  0  0
   27.1486   -1.2333  -10.0029 C   0  0  0  0  0  0  0  0  0  0  0  0
   28.1321   -1.6725   -9.1115 C   0  0  0  0  0  0  0  0  0  0  0  0
   28.0886   -1.2702   -7.7871 C   0  0  0  0  0  0  0  0  0  0  0  0
   27.0806   -0.4462   -7.3698 C   0  0  0  0  0  0  0  0  0  0  0  0
   26.1187   -0.0232   -8.2665 C   0  0  0  0  0  0  0  0  0  0  0  0
   26.1317   -0.4030   -9.5867 C   0  0  0  0  0  0  0  0  0  0  0  0
   25.1140    0.0315  -10.5619 C   0  0  2  0  0  0  0  0  0  0  0  0
   24.2891   -1.1261  -11.0747 C   0  0  0  0  0  0  0  0  0  0  0  0
   23.1388   -0.6847  -11.9143 C   0  0  1  0  0  0  0  0  0  0  0  0
   21.8540   -0.5803  -11.2151 C   0  0  0  0  0  0  0  0  0  0  0  0
   21.4950    0.5583  -10.5265 C   0  0  0  0  0  0  0  0  0  0  0  0
   20.2938    0.6761   -9.8569 C   0  0  0  0  0  0  0  0  0  0  0  0
   19.3843   -0.3735   -9.8543 C   0  0  0  0  0  0  0  0  0  0  0  0
   19.7303   -1.5144  -10.5373 C   0  0  0  0  0  0  0  0  0  0  0  0
   18.4678   -2.9614  -10.5290 Br  0  0  0  0  0  0  0  0  0  0  0  0
   20.9317   -1.6157  -11.1994 C   0  0  0  0  0  0  0  0  0  0  0  0
   23.4972    0.5492  -12.5965 N   0  0  0  0  0  0  0  0  0  0  0  0
   24.8395    1.0020  -12.7052 C   0  0  0  0  0  0  0  0  0  0  0  0
   25.5486    1.6693  -13.6328 N   0  0  0  0  0  0  0  0  0  0  0  0
   26.7901    1.8282  -13.2084 N   0  0  0  0  0  0  0  0  0  0  0  0
   26.8344    1.2549  -12.0184 N   0  0  0  0  0  0  0  0  0  0  0  0
   25.6651    0.7411  -11.6790 N   0  0  0  0  0  0  0  0  0  0  0  0
  1  2  1  0
  2  3  2  0
  3  4  1  0
  4  5  2  0
  5  6  1  0
  6  7  2  0
  8  7  1  1
  9  8  1  6
  9 10  1  0
 10 11  1  1
 11 12  2  0
 12 13  1  0
 13 14  2  0
 14 15  1  0
 15 16  1  0
 15 17  2  0
 10 18  1  0
 18 19  1  0
 19 20  2  0
 20 21  1  0
 21 22  2  0
 22 23  1  0
  7  2  1  0
 23  8  1  0
 17 11  1  0
 23 19  1  0
M  END
$$$$
