_rank7
     RDKit          3D

 21 24  0  0  0  0  0  0  0  0999 V2000
   19.0812    0.1274  -10.0993 C   0  0  0  0  0  0  0  0  0  0  0  0
   20.1102    0.5940   -9.3221 C   0  0  0  0  0  0  0  0  0  0  0  0
   21.3977    0.1742   -9.6037 C   0  0  0  0  0  0  0  0  0  0  0  0
   21.6882   -0.6932  -10.6327 C   0  0  0  0  0  0  0  0  0  0  0  0
   23.0687   -1.1225  -10.9082 C   0  0  2  0  0  0  0  0  0  0  0  0
   24.0400   -0.7011   -9.8368 C   0  0  0  0  0  0  0  0  0  0  0  0
   25.4411   -0.9020  -10.4066 C   0  0  2  0  0  0  0  0  0  0  0  0
   26.4855   -0.8182   -9.3801 C   0  0  0  0  0  0  0  0  0  0  0  0
   27.0312   -1.9228   -8.7595 C   0  0  0  0  0  0  0  0  0  0  0  0
   28.0079   -1.8393   -7.8000 C   0  0  0  0  0  0  0  0  0  0  0  0
   28.4806   -0.6033   -7.4234 C   0  0  0  0  0  0  0  0  0  0  0  0
   27.9548    0.5261   -8.0262 C   0  0  0  0  0  0  0  0  0  0  0  0
   26.9594    0.4208   -9.0026 C   0  0  0  0  0  0  0  0  0  0  0  0
   25.6140    0.0604  -11.4701 N   0  0  0  0  0  0  0  0  0  0  0  0
   26.5841    0.8766  -11.7739 N   0  0  0  0  0  0  0  0  0  0  0  0
   26.2056    1.5415  -12.8707 N   0  0  0  0  0  0  0  0  0  0  0  0
   24.9939    1.1321  -13.2455 N   0  0  0  0  0  0  0  0  0  0  0  0
   24.6226    0.1990  -12.3621 C   0  0  0  0  0  0  0  0  0  0  0  0
   23.4665   -0.6202  -12.1898 N   0  0  0  0  0  0  0  0  0  0  0  0
   20.6371   -1.1479  -11.3993 C   0  0  0  0  0  0  0  0  0  0  0  0
   19.3331   -0.7468  -11.1442 C   0  0  0  0  0  0  0  0  0  0  0  0
  1  2  2  0
  2  3  1  0
  3  4  2  0
  5  4  1  1
  6  5  1  6
  6  7  1  0
  7  8  1  1
  8  9  2  0
  9 10  1  0
 10 11  2  0
 11 12  1  0
 12 13  2  0
  7 14  1  0
 14 15  1  0
 15 16  2  0
 16 17  1  0
 17 18  2  0
 18 19  1  0
  4 20  1  0
 20 21  2  0
 21  1  1  0
 19  5  1  0
 13  8  1  0
 18 14  1  0
M  END
$$$$
