_rank15
     RDKit          3D

 24 27  0  0  0  0  0  0  0  0999 V2000
   25.9716   -0.4495   -7.1772 Cl  0  0  0  0  0  0  0  0  0  0  0  0
   26.8601   -0.8071   -8.6360 C   0  0  0  0  0  0  0  0  0  0  0  0
   28.1961   -1.1408   -8.6228 C   0  0  0  0  0  0  0  0  0  0  0  0
   28.8739   -1.4247   -9.8093 C   0  0  0  0  0  0  0  0  0  0  0  0
   28.2004   -1.3716  -11.0164 C   0  0  0  0  0  0  0  0  0  0  0  0
   29.1040   -1.7545  -12.6437 Br  0  0  0  0  0  0  0  0  0  0  0  0
   26.8533   -1.0352  -11.0315 C   0  0  0  0  0  0  0  0  0  0  0  0
   26.1800   -0.7537   -9.8586 C   0  0  0  0  0  0  0  0  0  0  0  0
   24.7376   -0.3924   -9.9075 C   0  0  2  0  0  0  0  0  0  0  0  0
   23.9320   -1.3591  -10.6692 C   0  0  0  0  0  0  0  0  0  0  0  0
   22.9016   -0.8765  -11.6023 C   0  0  1  0  0  0  0  0  0  0  0  0
   21.5288   -1.1198  -11.0859 C   0  0  0  0  0  0  0  0  0  0  0  0
   21.0787   -2.4034  -10.8612 C   0  0  0  0  0  0  0  0  0  0  0  0
   19.8050   -2.6404  -10.3839 C   0  0  0  0  0  0  0  0  0  0  0  0
   19.0055   -1.5448  -10.1424 C   0  0  0  0  0  0  0  0  0  0  0  0
   19.4210   -0.2525  -10.3548 C   0  0  0  0  0  0  0  0  0  0  0  0
   18.2523    1.2246   -9.9954 Br  0  0  0  0  0  0  0  0  0  0  0  0
   20.7107   -0.0432  -10.8366 C   0  0  0  0  0  0  0  0  0  0  0  0
   22.9605    0.5271  -11.9359 N   0  0  0  0  0  0  0  0  0  0  0  0
   23.7903    1.4370  -11.2728 C   0  0  0  0  0  0  0  0  0  0  0  0
   23.9369    2.7681  -11.4041 N   0  0  0  0  0  0  0  0  0  0  0  0
   24.8548    3.1075  -10.5292 N   0  0  0  0  0  0  0  0  0  0  0  0
   25.2654    2.0407   -9.8791 N   0  0  0  0  0  0  0  0  0  0  0  0
   24.6142    0.9805  -10.3257 N   0  0  0  0  0  0  0  0  0  0  0  0
  1  2  1  0
  2  3  2  0
  3  4  1  0
  4  5  2  0
  5  6  1  0
  5  7  1  0
  7  8  2  0
  9  8  1  6
 10  9  1  6
 10 11  1  0
 11 12  1  1
 12 13  2  0
 13 14  1  0
 14 15  2  0
 15 16  1  0
 16 17  1  0
 16 18  2  0
 11 19  1  0
 19 20  1  0
 20 21  2  0
 21 22  1  0
 22 23  2  0
 23 24  1  0
  8  2  1  0
 24  9  1  0
 18 12  1  0
 24 20  1  0
M  END
$$$$
