_rank7
     RDKit          3D

 21 23  0  0  0  0  0  0  0  0999 V2000
   18.6433    1.8610  -10.2870 C   0  0  0  0  0  0  0  0  0  0  0  0
   18.5554    0.4548  -10.3309 O   0  0  0  0  0  0  0  0  0  0  0  0
   19.6393   -0.3515  -10.5808 C   0  0  0  0  0  0  0  0  0  0  0  0
   19.4943   -1.7060  -10.6419 C   0  0  0  0  0  0  0  0  0  0  0  0
   20.5702   -2.5411  -10.8921 C   0  0  0  0  0  0  0  0  0  0  0  0
   21.8287   -1.9596  -11.0845 C   0  0  0  0  0  0  0  0  0  0  0  0
   22.0047   -0.5980  -11.0291 C   0  0  0  0  0  0  0  0  0  0  0  0
   23.2787   -0.0427  -11.2009 N   0  0  0  0  0  0  0  0  0  0  0  0
   24.3230   -0.1859  -10.2660 C   0  0  0  0  0  0  0  0  0  0  0  0
   24.1388   -0.5488   -8.9538 C   0  0  0  0  0  0  0  0  0  0  0  0
   25.2155   -0.6937   -8.0723 C   0  0  0  0  0  0  0  0  0  0  0  0
   26.4871   -0.4634   -8.5449 C   0  0  0  0  0  0  0  0  0  0  0  0
   27.7029   -0.5148   -7.9721 N   0  0  0  0  0  0  0  0  0  0  0  0
   28.6032   -0.2049   -8.8586 O   0  0  0  0  0  0  0  0  0  0  0  0
   28.0351    0.0522  -10.0041 N   0  0  0  0  0  0  0  0  0  0  0  0
   26.7139   -0.0972   -9.8541 C   0  0  0  0  0  0  0  0  0  0  0  0
   25.6410    0.0361  -10.6893 C   0  0  0  0  0  0  0  0  0  0  0  0
   25.8362    0.4066  -12.0238 N   0  0  0  0  0  4  0  0  0  0  0  0
   26.8480    1.1085  -12.2910 O   0  0  0  0  0  0  0  0  0  0  0  0
   25.0061    0.0611  -13.0601 O   0  0  0  0  0  1  0  0  0  0  0  0
   20.9144    0.1957  -10.7782 C   0  0  0  0  0  0  0  0  0  0  0  0
  1  2  1  1
  2  3  1  0
  3  4  2  0
  4  5  1  0
  5  6  2  0
  6  7  1  0
  7  8  1  0
  8  9  1  0
  9 10  1  0
 10 11  2  0
 11 12  1  0
 12 13  2  0
 13 14  1  0
 14 15  1  0
 15 16  2  0
 16 17  1  0
 17 18  1  0
 18 19  2  0
 18 20  1  0
  7 21  2  0
 21  3  1  0
 17  9  2  0
 16 12  1  0
M  CHG  2  18   1  20  -1
M  END
$$$$
