_rank3
     RDKit          3D

 24 27  0  0  0  0  0  0  0  0999 V2000
   25.4526    2.6871   -8.5509 Cl  0  0  0  0  0  0  0  0  0  0  0  0
   26.3175    1.1717   -8.5787 C   0  0  0  0  0  0  0  0  0  0  0  0
   27.4330    0.9448   -7.8037 C   0  0  0  0  0  0  0  0  0  0  0  0
   28.0975   -0.2816   -7.8487 C   0  0  0  0  0  0  0  0  0  0  0  0
   27.6343   -1.2853   -8.6802 C   0  0  0  0  0  0  0  0  0  0  0  0
   28.5238   -2.9629   -8.7569 Br  0  0  0  0  0  0  0  0  0  0  0  0
   26.5097   -1.0582   -9.4623 C   0  0  0  0  0  0  0  0  0  0  0  0
   25.8501    0.1548   -9.4199 C   0  0  0  0  0  0  0  0  0  0  0  0
   24.6501    0.3695  -10.2728 C   0  0  2  0  0  0  0  0  0  0  0  0
   23.5422   -0.5387   -9.9392 C   0  0  0  0  0  0  0  0  0  0  0  0
   22.7724   -1.1786  -11.0176 C   0  0  1  0  0  0  0  0  0  0  0  0
   21.4075   -0.6024  -11.1413 C   0  0  0  0  0  0  0  0  0  0  0  0
   20.8945   -0.2671  -12.3763 C   0  0  0  0  0  0  0  0  0  0  0  0
   19.6291    0.2707  -12.5021 C   0  0  0  0  0  0  0  0  0  0  0  0
   18.9030    0.4575  -11.3463 C   0  0  0  0  0  0  0  0  0  0  0  0
   19.3824    0.1350  -10.0998 C   0  0  0  0  0  0  0  0  0  0  0  0
   18.3138    0.4227   -8.5338 Br  0  0  0  0  0  0  0  0  0  0  0  0
   20.6620   -0.4058  -10.0028 C   0  0  0  0  0  0  0  0  0  0  0  0
   23.3567   -1.1094  -12.3363 N   0  0  0  0  0  0  0  0  0  0  0  0
   24.4660   -0.3138  -12.6408 C   0  0  0  0  0  0  0  0  0  0  0  0
   25.1036   -0.0817  -13.8027 N   0  0  0  0  0  0  0  0  0  0  0  0
   26.0789    0.7460  -13.5080 N   0  0  0  0  0  0  0  0  0  0  0  0
   26.0554    1.0209  -12.2222 N   0  0  0  0  0  0  0  0  0  0  0  0
   25.0543    0.3697  -11.6554 N   0  0  0  0  0  0  0  0  0  0  0  0
  1  2  1  0
  2  3  2  0
  3  4  1  0
  4  5  2  0
  5  6  1  0
  5  7  1  0
  7  8  2  0
  9  8  1  1
 10  9  1  6
 10 11  1  0
 11 12  1  6
 12 13  2  0
 13 14  1  0
 14 15  2  0
 15 16  1  0
 16 17  1  0
 16 18  2  0
 11 19  1  0
 19 20  1  0
 20 21  2  0
 21 22  1  0
 22 23  2  0
 23 24  1  0
  8  2  1  0
 24  9  1  0
 18 12  1  0
 24 20  1  0
M  END
$$$$
