_rank5
     RDKit          3D

 21 23  0  0  0  0  0  0  0  0999 V2000
   19.1272    1.8250   -9.3306 C   0  0  0  0  0  0  0  0  0  0  0  0
   19.0984    1.0954  -10.5363 O   0  0  0  0  0  0  0  0  0  0  0  0
   19.9217    0.0223  -10.7772 C   0  0  0  0  0  0  0  0  0  0  0  0
   19.4138   -1.2422  -10.8252 C   0  0  0  0  0  0  0  0  0  0  0  0
   20.2217   -2.3408  -11.0662 C   0  0  0  0  0  0  0  0  0  0  0  0
   21.5905   -2.1253  -11.2629 C   0  0  0  0  0  0  0  0  0  0  0  0
   22.1303   -0.8624  -11.2206 C   0  0  0  0  0  0  0  0  0  0  0  0
   23.5069   -0.6761  -11.3965 N   0  0  0  0  0  0  0  0  0  0  0  0
   24.3940   -0.3831  -10.3418 C   0  0  0  0  0  0  0  0  0  0  0  0
   24.0177   -0.2773   -9.0247 C   0  0  0  0  0  0  0  0  0  0  0  0
   24.9453   -0.0016   -8.0143 C   0  0  0  0  0  0  0  0  0  0  0  0
   26.2658    0.1661   -8.3626 C   0  0  0  0  0  0  0  0  0  0  0  0
   27.3761    0.4334   -7.6522 N   0  0  0  0  0  0  0  0  0  0  0  0
   28.3931    0.4951   -8.4610 O   0  0  0  0  0  0  0  0  0  0  0  0
   28.0049    0.2787   -9.6873 N   0  0  0  0  0  0  0  0  0  0  0  0
   26.6835    0.0684   -9.6725 C   0  0  0  0  0  0  0  0  0  0  0  0
   25.7528   -0.2015  -10.6355 C   0  0  0  0  0  0  0  0  0  0  0  0
   26.1432   -0.3071  -11.9743 N   0  0  0  0  0  4  0  0  0  0  0  0
   26.2741    0.7620  -12.6285 O   0  0  0  0  0  0  0  0  0  0  0  0
   26.3928   -1.4891  -12.6246 O   0  0  0  0  0  1  0  0  0  0  0  0
   21.2972    0.2002  -10.9785 C   0  0  0  0  0  0  0  0  0  0  0  0
  1  2  1  1
  2  3  1  0
  3  4  2  0
  4  5  1  0
  5  6  2  0
  6  7  1  0
  7  8  1  0
  8  9  1  0
  9 10  1  0
 10 11  2  0
 11 12  1  0
 12 13  2  0
 13 14  1  0
 14 15  1  0
 15 16  2  0
 16 17  1  0
 17 18  1  0
 18 19  2  0
 18 20  1  0
  7 21  2  0
 21  3  1  0
 17  9  2  0
 16 12  1  0
M  CHG  2  18   1  20  -1
M  END
$$$$
