_rank3
     RDKit          3D

 21 23  0  0  0  0  0  0  0  0999 V2000
   18.0443    1.0036   -9.7970 C   0  0  0  0  0  0  0  0  0  0  0  0
   19.2900    1.0406  -10.4558 O   0  0  0  0  0  0  0  0  0  0  0  0
   20.0659   -0.0774  -10.6446 C   0  0  0  0  0  0  0  0  0  0  0  0
   19.5031   -1.3193  -10.6372 C   0  0  0  0  0  0  0  0  0  0  0  0
   20.2624   -2.4620  -10.8251 C   0  0  0  0  0  0  0  0  0  0  0  0
   21.6397   -2.3158  -11.0263 C   0  0  0  0  0  0  0  0  0  0  0  0
   22.2343   -1.0771  -11.0394 C   0  0  0  0  0  0  0  0  0  0  0  0
   23.6181   -0.9594  -11.2184 N   0  0  0  0  0  0  0  0  0  0  0  0
   24.5069   -0.5843  -10.1916 C   0  0  0  0  0  0  0  0  0  0  0  0
   24.1282   -0.3468   -8.8925 C   0  0  0  0  0  0  0  0  0  0  0  0
   25.0573    0.0060   -7.9079 C   0  0  0  0  0  0  0  0  0  0  0  0
   26.3821    0.1149   -8.2635 C   0  0  0  0  0  0  0  0  0  0  0  0
   27.4949    0.4275   -7.5757 N   0  0  0  0  0  0  0  0  0  0  0  0
   28.5157    0.3928   -8.3814 O   0  0  0  0  0  0  0  0  0  0  0  0
   28.1277    0.0684   -9.5836 N   0  0  0  0  0  0  0  0  0  0  0  0
   26.8024   -0.1146   -9.5559 C   0  0  0  0  0  0  0  0  0  0  0  0
   25.8700   -0.4571  -10.4939 C   0  0  0  0  0  0  0  0  0  0  0  0
   26.2630   -0.6967  -11.8146 N   0  0  0  0  0  4  0  0  0  0  0  0
   25.3566   -0.7752  -12.6865 O   0  0  0  0  0  0  0  0  0  0  0  0
   27.5621   -0.8525  -12.2272 O   0  0  0  0  0  1  0  0  0  0  0  0
   21.4483    0.0309  -10.8488 C   0  0  0  0  0  0  0  0  0  0  0  0
  1  2  1  1
  2  3  1  0
  3  4  2  0
  4  5  1  0
  5  6  2  0
  6  7  1  0
  7  8  1  0
  8  9  1  0
  9 10  1  0
 10 11  2  0
 11 12  1  0
 12 13  2  0
 13 14  1  0
 14 15  1  0
 15 16  2  0
 16 17  1  0
 17 18  1  0
 18 19  2  0
 18 20  1  0
  7 21  2  0
 21  3  1  0
 17  9  2  0
 16 12  1  0
M  CHG  2  18   1  20  -1
M  END
$$$$
