_rank20
     RDKit          3D

 21 23  0  0  0  0  0  0  0  0999 V2000
   29.6559   -0.3332  -10.4539 C   0  0  0  0  0  0  0  0  0  0  0  0
   28.5575   -1.2112  -10.3541 O   0  0  0  0  0  0  0  0  0  0  0  0
   27.3314   -0.8184   -9.8748 C   0  0  0  0  0  0  0  0  0  0  0  0
   27.2210   -0.2494   -8.6406 C   0  0  0  0  0  0  0  0  0  0  0  0
   25.9974    0.1554   -8.1341 C   0  0  0  0  0  0  0  0  0  0  0  0
   24.8585   -0.0333   -8.9254 C   0  0  0  0  0  0  0  0  0  0  0  0
   24.9393   -0.6035  -10.1730 C   0  0  0  0  0  0  0  0  0  0  0  0
   23.7816   -0.8035  -10.9348 N   0  0  0  0  0  0  0  0  0  0  0  0
   22.4852   -0.4963  -10.4764 C   0  0  0  0  0  0  0  0  0  0  0  0
   22.2170    0.1227   -9.2796 C   0  0  0  0  0  0  0  0  0  0  0  0
   20.9092    0.4204   -8.8819 C   0  0  0  0  0  0  0  0  0  0  0  0
   19.8734    0.0785   -9.7208 C   0  0  0  0  0  0  0  0  0  0  0  0
   18.5386    0.2209   -9.6370 N   0  0  0  0  0  0  0  0  0  0  0  0
   17.9908   -0.2745  -10.7079 O   0  0  0  0  0  0  0  0  0  0  0  0
   18.9097   -0.7434  -11.5060 N   0  0  0  0  0  0  0  0  0  0  0  0
   20.1005   -0.5439  -10.9293 C   0  0  0  0  0  0  0  0  0  0  0  0
   21.3893   -0.8211  -11.2882 C   0  0  0  0  0  0  0  0  0  0  0  0
   21.6545   -1.4522  -12.5079 N   0  0  0  0  0  4  0  0  0  0  0  0
   20.6682   -1.7765  -13.2221 O   0  0  0  0  0  0  0  0  0  0  0  0
   22.9092   -1.7428  -12.9807 O   0  0  0  0  0  1  0  0  0  0  0  0
   26.1695   -0.9919  -10.6392 C   0  0  0  0  0  0  0  0  0  0  0  0
  1  2  1  1
  2  3  1  0
  3  4  2  0
  4  5  1  0
  5  6  2  0
  6  7  1  0
  7  8  1  0
  8  9  1  0
  9 10  1  0
 10 11  2  0
 11 12  1  0
 12 13  2  0
 13 14  1  0
 14 15  1  0
 15 16  2  0
 16 17  1  0
 17 18  1  0
 18 19  2  0
 18 20  1  0
  7 21  2  0
 21  3  1  0
 17  9  2  0
 16 12  1  0
M  CHG  2  18   1  20  -1
M  END
$$$$
