_rank4
     RDKit          3D

 21 23  0  0  0  0  0  0  0  0999 V2000
   18.1146    1.0444   -9.9093 C   0  0  0  0  0  0  0  0  0  0  0  0
   19.4636    0.7973   -9.5833 O   0  0  0  0  0  0  0  0  0  0  0  0
   20.2079   -0.1860  -10.1888 C   0  0  0  0  0  0  0  0  0  0  0  0
   19.6227   -1.3529  -10.5827 C   0  0  0  0  0  0  0  0  0  0  0  0
   20.3500   -2.3597  -11.1950 C   0  0  0  0  0  0  0  0  0  0  0  0
   21.7183   -2.1537  -11.4054 C   0  0  0  0  0  0  0  0  0  0  0  0
   22.3349   -0.9880  -11.0195 C   0  0  0  0  0  0  0  0  0  0  0  0
   23.7101   -0.8164  -11.2194 N   0  0  0  0  0  0  0  0  0  0  0  0
   24.6188   -0.5347  -10.1802 C   0  0  0  0  0  0  0  0  0  0  0  0
   24.2899   -0.5381   -8.8463 C   0  0  0  0  0  0  0  0  0  0  0  0
   25.2382   -0.2681   -7.8538 C   0  0  0  0  0  0  0  0  0  0  0  0
   26.5308    0.0068   -8.2376 C   0  0  0  0  0  0  0  0  0  0  0  0
   27.6499    0.2995   -7.5513 N   0  0  0  0  0  0  0  0  0  0  0  0
   28.6277    0.4786   -8.3903 O   0  0  0  0  0  0  0  0  0  0  0  0
   28.2048    0.3166   -9.6135 N   0  0  0  0  0  0  0  0  0  0  0  0
   26.9008    0.0205   -9.5651 C   0  0  0  0  0  0  0  0  0  0  0  0
   25.9508   -0.2469  -10.5098 C   0  0  0  0  0  0  0  0  0  0  0  0
   26.2929   -0.2409  -11.8660 N   0  0  0  0  0  4  0  0  0  0  0  0
   25.3539   -0.3085  -12.7036 O   0  0  0  0  0  0  0  0  0  0  0  0
   27.5753   -0.1673  -12.3479 O   0  0  0  0  0  1  0  0  0  0  0  0
   21.5803   -0.0146  -10.4154 C   0  0  0  0  0  0  0  0  0  0  0  0
  1  2  1  1
  2  3  1  0
  3  4  2  0
  4  5  1  0
  5  6  2  0
  6  7  1  0
  7  8  1  0
  8  9  1  0
  9 10  1  0
 10 11  2  0
 11 12  1  0
 12 13  2  0
 13 14  1  0
 14 15  1  0
 15 16  2  0
 16 17  1  0
 17 18  1  0
 18 19  2  0
 18 20  1  0
  7 21  2  0
 21  3  1  0
 17  9  2  0
 16 12  1  0
M  CHG  2  18   1  20  -1
M  END
$$$$
