_rank19
     RDKit          3D

 24 27  0  0  0  0  0  0  0  0999 V2000
   21.3656    2.6604  -10.2986 Cl  0  0  0  0  0  0  0  0  0  0  0  0
   20.4826    1.1746  -10.5397 C   0  0  0  0  0  0  0  0  0  0  0  0
   19.1767    1.1553  -10.9764 C   0  0  0  0  0  0  0  0  0  0  0  0
   18.5026   -0.0525  -11.1620 C   0  0  0  0  0  0  0  0  0  0  0  0
   19.1493   -1.2481  -10.9057 C   0  0  0  0  0  0  0  0  0  0  0  0
   18.2503   -2.9042  -11.1519 Br  0  0  0  0  0  0  0  0  0  0  0  0
   20.4661   -1.2305  -10.4653 C   0  0  0  0  0  0  0  0  0  0  0  0
   21.1356   -0.0364  -10.2807 C   0  0  0  0  0  0  0  0  0  0  0  0
   22.5449   -0.0498   -9.8040 C   0  0  2  0  0  0  0  0  0  0  0  0
   23.4966   -0.4641  -10.8462 C   0  0  0  0  0  0  0  0  0  0  0  0
   24.5854   -1.3958  -10.5123 C   0  0  1  0  0  0  0  0  0  0  0  0
   25.9074   -0.7160  -10.4846 C   0  0  0  0  0  0  0  0  0  0  0  0
   26.7676   -0.8061  -11.5583 C   0  0  0  0  0  0  0  0  0  0  0  0
   27.9983   -0.1806  -11.5421 C   0  0  0  0  0  0  0  0  0  0  0  0
   28.3298    0.5349  -10.4124 C   0  0  0  0  0  0  0  0  0  0  0  0
   27.4977    0.6460   -9.3247 C   0  0  0  0  0  0  0  0  0  0  0  0
   28.0263    1.6601   -7.7856 Br  0  0  0  0  0  0  0  0  0  0  0  0
   26.2624    0.0046   -9.3688 C   0  0  0  0  0  0  0  0  0  0  0  0
   24.4625   -2.0825   -9.2480 N   0  0  0  0  0  0  0  0  0  0  0  0
   23.5016   -1.7506   -8.2874 C   0  0  0  0  0  0  0  0  0  0  0  0
   23.2747   -2.2316   -7.0514 N   0  0  0  0  0  0  0  0  0  0  0  0
   22.2445   -1.5571   -6.5966 N   0  0  0  0  0  0  0  0  0  0  0  0
   21.8431   -0.6934   -7.5034 N   0  0  0  0  0  0  0  0  0  0  0  0
   22.6140   -0.7941   -8.5726 N   0  0  0  0  0  0  0  0  0  0  0  0
  1  2  1  0
  2  3  2  0
  3  4  1  0
  4  5  2  0
  5  6  1  0
  5  7  1  0
  7  8  2  0
  9  8  1  6
 10  9  1  6
 10 11  1  0
 11 12  1  1
 12 13  2  0
 13 14  1  0
 14 15  2  0
 15 16  1  0
 16 17  1  0
 16 18  2  0
 11 19  1  0
 19 20  1  0
 20 21  2  0
 21 22  1  0
 22 23  2  0
 23 24  1  0
  8  2  1  0
 24  9  1  0
 18 12  1  0
 24 20  1  0
M  END
$$$$
