_rank2
     RDKit          3D

 21 23  0  0  0  0  0  0  0  0999 V2000
   18.4221    1.8089  -10.2738 C   0  0  0  0  0  0  0  0  0  0  0  0
   19.4184    1.0616   -9.6135 O   0  0  0  0  0  0  0  0  0  0  0  0
   20.1334    0.0644  -10.2314 C   0  0  0  0  0  0  0  0  0  0  0  0
   19.5248   -1.1009  -10.5933 C   0  0  0  0  0  0  0  0  0  0  0  0
   20.2223   -2.1215  -11.2172 C   0  0  0  0  0  0  0  0  0  0  0  0
   21.5850   -1.9314  -11.4737 C   0  0  0  0  0  0  0  0  0  0  0  0
   22.2248   -0.7677  -11.1208 C   0  0  0  0  0  0  0  0  0  0  0  0
   23.5945   -0.6119  -11.3666 N   0  0  0  0  0  0  0  0  0  0  0  0
   24.5444   -0.3689  -10.3548 C   0  0  0  0  0  0  0  0  0  0  0  0
   24.3117   -0.5660   -9.0153 C   0  0  0  0  0  0  0  0  0  0  0  0
   25.2988   -0.3250   -8.0535 C   0  0  0  0  0  0  0  0  0  0  0  0
   26.5307    0.1211   -8.4740 C   0  0  0  0  0  0  0  0  0  0  0  0
   27.6638    0.4385   -7.8226 N   0  0  0  0  0  0  0  0  0  0  0  0
   28.5599    0.8138   -8.6878 O   0  0  0  0  0  0  0  0  0  0  0  0
   28.0687    0.7594   -9.8948 N   0  0  0  0  0  0  0  0  0  0  0  0
   26.8038    0.3317   -9.8084 C   0  0  0  0  0  0  0  0  0  0  0  0
   25.8181    0.0873  -10.7224 C   0  0  0  0  0  0  0  0  0  0  0  0
   26.0623    0.2909  -12.0844 N   0  0  0  0  0  4  0  0  0  0  0  0
   25.0649    0.4623  -12.8353 O   0  0  0  0  0  0  0  0  0  0  0  0
   27.3075    0.3168  -12.6597 O   0  0  0  0  0  1  0  0  0  0  0  0
   21.4994    0.2197  -10.5038 C   0  0  0  0  0  0  0  0  0  0  0  0
  1  2  1  1
  2  3  1  0
  3  4  2  0
  4  5  1  0
  5  6  2  0
  6  7  1  0
  7  8  1  0
  8  9  1  0
  9 10  1  0
 10 11  2  0
 11 12  1  0
 12 13  2  0
 13 14  1  0
 14 15  1  0
 15 16  2  0
 16 17  1  0
 17 18  1  0
 18 19  2  0
 18 20  1  0
  7 21  2  0
 21  3  1  0
 17  9  2  0
 16 12  1  0
M  CHG  2  18   1  20  -1
M  END
$$$$
