_rank18
     RDKit          3D

 24 27  0  0  0  0  0  0  0  0999 V2000
   21.3299    1.6490  -10.2902 Cl  0  0  0  0  0  0  0  0  0  0  0  0
   20.2114    0.3368  -10.0208 C   0  0  0  0  0  0  0  0  0  0  0  0
   18.8956    0.5487   -9.6744 C   0  0  0  0  0  0  0  0  0  0  0  0
   18.0280   -0.5253   -9.4706 C   0  0  0  0  0  0  0  0  0  0  0  0
   18.4902   -1.8209   -9.6171 C   0  0  0  0  0  0  0  0  0  0  0  0
   17.3260   -3.2979   -9.3445 Br  0  0  0  0  0  0  0  0  0  0  0  0
   19.8167   -2.0362   -9.9663 C   0  0  0  0  0  0  0  0  0  0  0  0
   20.6776   -0.9751  -10.1686 C   0  0  0  0  0  0  0  0  0  0  0  0
   22.0946   -1.2379  -10.5381 C   0  0  2  0  0  0  0  0  0  0  0  0
   23.0240   -0.2426   -9.9820 C   0  0  0  0  0  0  0  0  0  0  0  0
   24.1087    0.2923  -10.8202 C   0  0  1  0  0  0  0  0  0  0  0  0
   25.4379   -0.2287  -10.4052 C   0  0  0  0  0  0  0  0  0  0  0  0
   26.0570   -1.2295  -11.1235 C   0  0  0  0  0  0  0  0  0  0  0  0
   27.2902   -1.7220  -10.7456 C   0  0  0  0  0  0  0  0  0  0  0  0
   27.8743   -1.1736   -9.6249 C   0  0  0  0  0  0  0  0  0  0  0  0
   27.2865   -0.1758   -8.8855 C   0  0  0  0  0  0  0  0  0  0  0  0
   28.1597    0.5403   -7.3359 Br  0  0  0  0  0  0  0  0  0  0  0  0
   26.0424    0.3017   -9.2900 C   0  0  0  0  0  0  0  0  0  0  0  0
   24.0002    0.0289  -12.2358 N   0  0  0  0  0  0  0  0  0  0  0  0
   23.0594   -0.8511  -12.7804 C   0  0  0  0  0  0  0  0  0  0  0  0
   22.8486   -1.2585  -14.0453 N   0  0  0  0  0  0  0  0  0  0  0  0
   21.8334   -2.0882  -13.9817 N   0  0  0  0  0  0  0  0  0  0  0  0
   21.4256   -2.1971  -12.7362 N   0  0  0  0  0  0  0  0  0  0  0  0
   22.1770   -1.4322  -11.9630 N   0  0  0  0  0  0  0  0  0  0  0  0
  1  2  1  0
  2  3  2  0
  3  4  1  0
  4  5  2  0
  5  6  1  0
  5  7  1  0
  7  8  2  0
  9  8  1  6
 10  9  1  6
 10 11  1  0
 11 12  1  1
 12 13  2  0
 13 14  1  0
 14 15  2  0
 15 16  1  0
 16 17  1  0
 16 18  2  0
 11 19  1  0
 19 20  1  0
 20 21  2  0
 21 22  1  0
 22 23  2  0
 23 24  1  0
  8  2  1  0
 24  9  1  0
 18 12  1  0
 24 20  1  0
M  END
$$$$
