_rank14
     RDKit          3D

 24 27  0  0  0  0  0  0  0  0999 V2000
   20.6495   -3.2864   -9.1221 Cl  0  0  0  0  0  0  0  0  0  0  0  0
   19.9297   -1.7971   -9.6782 C   0  0  0  0  0  0  0  0  0  0  0  0
   18.5837   -1.5358   -9.5507 C   0  0  0  0  0  0  0  0  0  0  0  0
   18.0431   -0.3314  -10.0035 C   0  0  0  0  0  0  0  0  0  0  0  0
   18.8649    0.6151  -10.5883 C   0  0  0  0  0  0  0  0  0  0  0  0
   18.1497    2.2617  -11.2116 Br  0  0  0  0  0  0  0  0  0  0  0  0
   20.2224    0.3532  -10.7177 C   0  0  0  0  0  0  0  0  0  0  0  0
   20.7601   -0.8380  -10.2705 C   0  0  0  0  0  0  0  0  0  0  0  0
   22.2178   -1.0913  -10.4267 C   0  0  2  0  0  0  0  0  0  0  0  0
   23.0425   -0.2339   -9.5616 C   0  0  0  0  0  0  0  0  0  0  0  0
   24.2633    0.3873  -10.0993 C   0  0  1  0  0  0  0  0  0  0  0  0
   25.4932   -0.2433   -9.5515 C   0  0  0  0  0  0  0  0  0  0  0  0
   25.5003   -1.5733   -9.1884 C   0  0  0  0  0  0  0  0  0  0  0  0
   26.6364   -2.1681   -8.6768 C   0  0  0  0  0  0  0  0  0  0  0  0
   27.7586   -1.3800   -8.5446 C   0  0  0  0  0  0  0  0  0  0  0  0
   27.7874   -0.0521   -8.8961 C   0  0  0  0  0  0  0  0  0  0  0  0
   29.3873    0.9835   -8.6845 Br  0  0  0  0  0  0  0  0  0  0  0  0
   26.6270    0.5215   -9.4095 C   0  0  0  0  0  0  0  0  0  0  0  0
   24.4052    0.3589  -11.5360 N   0  0  0  0  0  0  0  0  0  0  0  0
   23.5682   -0.3862  -12.3729 C   0  0  0  0  0  0  0  0  0  0  0  0
   23.5815   -0.5770  -13.7048 N   0  0  0  0  0  0  0  0  0  0  0  0
   22.5638   -1.3674  -13.9557 N   0  0  0  0  0  0  0  0  0  0  0  0
   21.9408   -1.6593  -12.8350 N   0  0  0  0  0  0  0  0  0  0  0  0
   22.5498   -1.0573  -11.8280 N   0  0  0  0  0  0  0  0  0  0  0  0
  1  2  1  0
  2  3  2  0
  3  4  1  0
  4  5  2  0
  5  6  1  0
  5  7  1  0
  7  8  2  0
  9  8  1  6
 10  9  1  6
 10 11  1  0
 11 12  1  1
 12 13  2  0
 13 14  1  0
 14 15  2  0
 15 16  1  0
 16 17  1  0
 16 18  2  0
 11 19  1  0
 19 20  1  0
 20 21  2  0
 21 22  1  0
 22 23  2  0
 23 24  1  0
  8  2  1  0
 24  9  1  0
 18 12  1  0
 24 20  1  0
M  END
$$$$
