_rank6
     RDKit          3D

 21 23  0  0  0  0  0  0  0  0999 V2000
   17.8712    1.2445  -10.6404 C   0  0  0  0  0  0  0  0  0  0  0  0
   18.9924    0.9108  -11.4269 O   0  0  0  0  0  0  0  0  0  0  0  0
   19.9964    0.0861  -10.9804 C   0  0  0  0  0  0  0  0  0  0  0  0
   19.7055   -1.0118  -10.2259 C   0  0  0  0  0  0  0  0  0  0  0  0
   20.6984   -1.8591   -9.7633 C   0  0  0  0  0  0  0  0  0  0  0  0
   22.0266   -1.5628  -10.0902 C   0  0  0  0  0  0  0  0  0  0  0  0
   22.3496   -0.4638  -10.8491 C   0  0  0  0  0  0  0  0  0  0  0  0
   23.6883   -0.1759  -11.1418 N   0  0  0  0  0  0  0  0  0  0  0  0
   24.7111   -0.1600  -10.1730 C   0  0  0  0  0  0  0  0  0  0  0  0
   24.4970   -0.3012   -8.8233 C   0  0  0  0  0  0  0  0  0  0  0  0
   25.5533   -0.2957   -7.9060 C   0  0  0  0  0  0  0  0  0  0  0  0
   26.8356   -0.1437   -8.3816 C   0  0  0  0  0  0  0  0  0  0  0  0
   28.0381   -0.0968   -7.7811 N   0  0  0  0  0  0  0  0  0  0  0  0
   28.9586    0.0644   -8.6862 O   0  0  0  0  0  0  0  0  0  0  0  0
   28.4168    0.1271   -9.8710 N   0  0  0  0  0  0  0  0  0  0  0  0
   27.0923    0.0014   -9.7280 C   0  0  0  0  0  0  0  0  0  0  0  0
   26.0386   -0.0079  -10.5976 C   0  0  0  0  0  0  0  0  0  0  0  0
   26.2643    0.1371  -11.9702 N   0  0  0  0  0  4  0  0  0  0  0  0
   25.2556    0.2434  -12.7180 O   0  0  0  0  0  0  0  0  0  0  0  0
   27.5030    0.1714  -12.5590 O   0  0  0  0  0  1  0  0  0  0  0  0
   21.3377    0.3518  -11.2880 C   0  0  0  0  0  0  0  0  0  0  0  0
  1  2  1  1
  2  3  1  0
  3  4  2  0
  4  5  1  0
  5  6  2  0
  6  7  1  0
  7  8  1  0
  8  9  1  0
  9 10  1  0
 10 11  2  0
 11 12  1  0
 12 13  2  0
 13 14  1  0
 14 15  1  0
 15 16  2  0
 16 17  1  0
 17 18  1  0
 18 19  2  0
 18 20  1  0
  7 21  2  0
 21  3  1  0
 17  9  2  0
 16 12  1  0
M  CHG  2  18   1  20  -1
M  END
$$$$
