_rank4
     RDKit          3D

 24 27  0  0  0  0  0  0  0  0999 V2000
   24.9188    0.9886   -7.3773 Cl  0  0  0  0  0  0  0  0  0  0  0  0
   26.1731    0.2050   -8.3036 C   0  0  0  0  0  0  0  0  0  0  0  0
   27.4286   -0.0339   -7.7909 C   0  0  0  0  0  0  0  0  0  0  0  0
   28.4063   -0.6670   -8.5597 C   0  0  0  0  0  0  0  0  0  0  0  0
   28.1162   -1.0614   -9.8534 C   0  0  0  0  0  0  0  0  0  0  0  0
   29.4325   -1.9250  -10.9176 Br  0  0  0  0  0  0  0  0  0  0  0  0
   26.8507   -0.8212  -10.3719 C   0  0  0  0  0  0  0  0  0  0  0  0
   25.8811   -0.1947   -9.6132 C   0  0  0  0  0  0  0  0  0  0  0  0
   24.5356    0.0524  -10.1981 C   0  0  2  0  0  0  0  0  0  0  0  0
   23.6571   -1.1252  -10.1279 C   0  0  0  0  0  0  0  0  0  0  0  0
   22.8266   -1.4871  -11.2874 C   0  0  1  0  0  0  0  0  0  0  0  0
   21.3869   -1.2035  -11.0479 C   0  0  0  0  0  0  0  0  0  0  0  0
   20.4149   -2.0763  -11.4886 C   0  0  0  0  0  0  0  0  0  0  0  0
   19.0752   -1.8214  -11.2734 C   0  0  0  0  0  0  0  0  0  0  0  0
   18.7512   -0.6627  -10.6023 C   0  0  0  0  0  0  0  0  0  0  0  0
   19.6930    0.2292  -10.1492 C   0  0  0  0  0  0  0  0  0  0  0  0
   19.1675    1.8228   -9.2213 Br  0  0  0  0  0  0  0  0  0  0  0  0
   21.0368   -0.0536  -10.3804 C   0  0  0  0  0  0  0  0  0  0  0  0
   23.1612   -0.8342  -12.5311 N   0  0  0  0  0  0  0  0  0  0  0  0
   24.0638    0.2307  -12.6176 C   0  0  0  0  0  0  0  0  0  0  0  0
   24.4511    0.9875  -13.6605 N   0  0  0  0  0  0  0  0  0  0  0  0
   25.3196    1.8412  -13.1705 N   0  0  0  0  0  0  0  0  0  0  0  0
   25.4707    1.6310  -11.8812 N   0  0  0  0  0  0  0  0  0  0  0  0
   24.6951    0.6273  -11.5093 N   0  0  0  0  0  0  0  0  0  0  0  0
  1  2  1  0
  2  3  2  0
  3  4  1  0
  4  5  2  0
  5  6  1  0
  5  7  1  0
  7  8  2  0
  9  8  1  6
 10  9  1  6
 10 11  1  0
 11 12  1  1
 12 13  2  0
 13 14  1  0
 14 15  2  0
 15 16  1  0
 16 17  1  0
 16 18  2  0
 11 19  1  0
 19 20  1  0
 20 21  2  0
 21 22  1  0
 22 23  2  0
 23 24  1  0
  8  2  1  0
 24  9  1  0
 18 12  1  0
 24 20  1  0
M  END
$$$$
