_rank2
     RDKit          3D

 24 27  0  0  0  0  0  0  0  0999 V2000
   25.0730   -2.7542  -10.5876 Cl  0  0  0  0  0  0  0  0  0  0  0  0
   26.1271   -1.7172   -9.6609 C   0  0  0  0  0  0  0  0  0  0  0  0
   27.2896   -2.1752   -9.0818 C   0  0  0  0  0  0  0  0  0  0  0  0
   28.1109   -1.3158   -8.3505 C   0  0  0  0  0  0  0  0  0  0  0  0
   27.7577    0.0134   -8.2023 C   0  0  0  0  0  0  0  0  0  0  0  0
   28.8615    1.2008   -7.2108 Br  0  0  0  0  0  0  0  0  0  0  0  0
   26.5859    0.4768   -8.7856 C   0  0  0  0  0  0  0  0  0  0  0  0
   25.7712   -0.3716   -9.5098 C   0  0  0  0  0  0  0  0  0  0  0  0
   24.5198    0.1535  -10.1196 C   0  0  2  0  0  0  0  0  0  0  0  0
   23.4140   -0.8157  -10.0788 C   0  0  0  0  0  0  0  0  0  0  0  0
   22.5522   -0.9904  -11.2586 C   0  0  1  0  0  0  0  0  0  0  0  0
   21.1981   -0.4144  -11.0457 C   0  0  0  0  0  0  0  0  0  0  0  0
   21.0044    0.9506  -11.0564 C   0  0  0  0  0  0  0  0  0  0  0  0
   19.7516    1.4959  -10.8576 C   0  0  0  0  0  0  0  0  0  0  0  0
   18.7070    0.6223  -10.6489 C   0  0  0  0  0  0  0  0  0  0  0  0
   18.8635   -0.7426  -10.6318 C   0  0  0  0  0  0  0  0  0  0  0  0
   17.3621   -1.8979  -10.3355 Br  0  0  0  0  0  0  0  0  0  0  0  0
   20.1384   -1.2647  -10.8351 C   0  0  0  0  0  0  0  0  0  0  0  0
   23.0426   -0.4149  -12.4888 N   0  0  0  0  0  0  0  0  0  0  0  0
   24.1487    0.4391  -12.5463 C   0  0  0  0  0  0  0  0  0  0  0  0
   24.7079    1.1042  -13.5736 N   0  0  0  0  0  0  0  0  0  0  0  0
   25.7241    1.7557  -13.0577 N   0  0  0  0  0  0  0  0  0  0  0  0
   25.7998    1.5118  -11.7677 N   0  0  0  0  0  0  0  0  0  0  0  0
   24.8242    0.6896  -11.4215 N   0  0  0  0  0  0  0  0  0  0  0  0
  1  2  1  0
  2  3  2  0
  3  4  1  0
  4  5  2  0
  5  6  1  0
  5  7  1  0
  7  8  2  0
  9  8  1  6
 10  9  1  6
 10 11  1  0
 11 12  1  1
 12 13  2  0
 13 14  1  0
 14 15  2  0
 15 16  1  0
 16 17  1  0
 16 18  2  0
 11 19  1  0
 19 20  1  0
 20 21  2  0
 21 22  1  0
 22 23  2  0
 23 24  1  0
  8  2  1  0
 24  9  1  0
 18 12  1  0
 24 20  1  0
M  END
$$$$
