_rank8
     RDKit          3D

 21 23  0  0  0  0  0  0  0  0999 V2000
   17.7008    0.8091  -10.8170 C   0  0  0  0  0  0  0  0  0  0  0  0
   18.9726    0.7421  -11.4212 O   0  0  0  0  0  0  0  0  0  0  0  0
   19.9370   -0.1543  -11.0290 C   0  0  0  0  0  0  0  0  0  0  0  0
   19.5910   -1.3038  -10.3824 C   0  0  0  0  0  0  0  0  0  0  0  0
   20.5432   -2.2237   -9.9765 C   0  0  0  0  0  0  0  0  0  0  0  0
   21.8883   -1.9471  -10.2469 C   0  0  0  0  0  0  0  0  0  0  0  0
   22.2665   -0.7972  -10.8971 C   0  0  0  0  0  0  0  0  0  0  0  0
   23.6209   -0.5323  -11.1340 N   0  0  0  0  0  0  0  0  0  0  0  0
   24.5837   -0.4243  -10.1110 C   0  0  0  0  0  0  0  0  0  0  0  0
   24.3190   -0.6283   -8.7784 C   0  0  0  0  0  0  0  0  0  0  0  0
   25.3189   -0.5252   -7.8054 C   0  0  0  0  0  0  0  0  0  0  0  0
   26.5967   -0.2102   -8.2072 C   0  0  0  0  0  0  0  0  0  0  0  0
   27.7529   -0.0396   -7.5415 N   0  0  0  0  0  0  0  0  0  0  0  0
   28.6928    0.2543   -8.3915 O   0  0  0  0  0  0  0  0  0  0  0  0
   28.2087    0.2869   -9.6022 N   0  0  0  0  0  0  0  0  0  0  0  0
   26.9030    0.0026   -9.5341 C   0  0  0  0  0  0  0  0  0  0  0  0
   25.9037   -0.1053  -10.4595 C   0  0  0  0  0  0  0  0  0  0  0  0
   26.1806    0.1044  -11.8143 N   0  0  0  0  0  4  0  0  0  0  0  0
   25.3388   -0.3163  -12.6524 O   0  0  0  0  0  0  0  0  0  0  0  0
   27.3011    0.7339  -12.2945 O   0  0  0  0  0  1  0  0  0  0  0  0
   21.2937    0.0897  -11.2827 C   0  0  0  0  0  0  0  0  0  0  0  0
  1  2  1  1
  2  3  1  0
  3  4  2  0
  4  5  1  0
  5  6  2  0
  6  7  1  0
  7  8  1  0
  8  9  1  0
  9 10  1  0
 10 11  2  0
 11 12  1  0
 12 13  2  0
 13 14  1  0
 14 15  1  0
 15 16  2  0
 16 17  1  0
 17 18  1  0
 18 19  2  0
 18 20  1  0
  7 21  2  0
 21  3  1  0
 17  9  2  0
 16 12  1  0
M  CHG  2  18   1  20  -1
M  END
$$$$
