_rank13
     RDKit          3D

 24 27  0  0  0  0  0  0  0  0999 V2000
   25.9646   -0.2010   -7.0568 Cl  0  0  0  0  0  0  0  0  0  0  0  0
   26.8194   -0.6857   -8.4989 C   0  0  0  0  0  0  0  0  0  0  0  0
   28.1657   -0.9754   -8.4961 C   0  0  0  0  0  0  0  0  0  0  0  0
   28.8159   -1.3639   -9.6683 C   0  0  0  0  0  0  0  0  0  0  0  0
   28.1042   -1.4610  -10.8504 C   0  0  0  0  0  0  0  0  0  0  0  0
   28.9696   -1.9884  -12.4579 Br  0  0  0  0  0  0  0  0  0  0  0  0
   26.7466   -1.1692  -10.8550 C   0  0  0  0  0  0  0  0  0  0  0  0
   26.1005   -0.7843   -9.6963 C   0  0  0  0  0  0  0  0  0  0  0  0
   24.6459   -0.4743   -9.7338 C   0  0  2  0  0  0  0  0  0  0  0  0
   23.8763   -1.4403  -10.5327 C   0  0  0  0  0  0  0  0  0  0  0  0
   22.8293   -0.9608  -11.4486 C   0  0  1  0  0  0  0  0  0  0  0  0
   21.4662   -1.2732  -10.9439 C   0  0  0  0  0  0  0  0  0  0  0  0
   21.1925   -2.4948  -10.3663 C   0  0  0  0  0  0  0  0  0  0  0  0
   19.9297   -2.7959   -9.8964 C   0  0  0  0  0  0  0  0  0  0  0  0
   18.9579   -1.8284  -10.0283 C   0  0  0  0  0  0  0  0  0  0  0  0
   19.1950   -0.6010  -10.5984 C   0  0  0  0  0  0  0  0  0  0  0  0
   17.7923    0.6979  -10.7480 Br  0  0  0  0  0  0  0  0  0  0  0  0
   20.4781   -0.3246  -11.0636 C   0  0  0  0  0  0  0  0  0  0  0  0
   22.8369    0.4557  -11.7291 N   0  0  0  0  0  0  0  0  0  0  0  0
   23.6328    1.3696  -11.0308 C   0  0  0  0  0  0  0  0  0  0  0  0
   23.7308    2.7091  -11.1117 N   0  0  0  0  0  0  0  0  0  0  0  0
   24.6354    3.0486  -10.2231 N   0  0  0  0  0  0  0  0  0  0  0  0
   25.0845    1.9737   -9.6130 N   0  0  0  0  0  0  0  0  0  0  0  0
   24.4726    0.9081  -10.1003 N   0  0  0  0  0  0  0  0  0  0  0  0
  1  2  1  0
  2  3  2  0
  3  4  1  0
  4  5  2  0
  5  6  1  0
  5  7  1  0
  7  8  2  0
  9  8  1  6
 10  9  1  6
 10 11  1  0
 11 12  1  1
 12 13  2  0
 13 14  1  0
 14 15  2  0
 15 16  1  0
 16 17  1  0
 16 18  2  0
 11 19  1  0
 19 20  1  0
 20 21  2  0
 21 22  1  0
 22 23  2  0
 23 24  1  0
  8  2  1  0
 24  9  1  0
 18 12  1  0
 24 20  1  0
M  END
$$$$
