_rank17
     RDKit          3D

 24 27  0  0  0  0  0  0  0  0999 V2000
   21.8077    0.8712   -7.2556 Cl  0  0  0  0  0  0  0  0  0  0  0  0
   20.6611    0.7574   -8.5663 C   0  0  0  0  0  0  0  0  0  0  0  0
   19.3943    1.2913   -8.4865 C   0  0  0  0  0  0  0  0  0  0  0  0
   18.5047    1.1848   -9.5566 C   0  0  0  0  0  0  0  0  0  0  0  0
   18.8951    0.5359  -10.7142 C   0  0  0  0  0  0  0  0  0  0  0  0
   17.6999    0.3796  -12.1833 Br  0  0  0  0  0  0  0  0  0  0  0  0
   20.1721   -0.0031  -10.7963 C   0  0  0  0  0  0  0  0  0  0  0  0
   21.0546    0.1009   -9.7386 C   0  0  0  0  0  0  0  0  0  0  0  0
   22.4148   -0.4904   -9.8552 C   0  0  2  0  0  0  0  0  0  0  0  0
   23.4544    0.5160  -10.1201 C   0  0  0  0  0  0  0  0  0  0  0  0
   24.5029    0.2387  -11.1145 C   0  0  1  0  0  0  0  0  0  0  0  0
   25.8210   -0.0128  -10.4743 C   0  0  0  0  0  0  0  0  0  0  0  0
   26.8979    0.8078  -10.7350 C   0  0  0  0  0  0  0  0  0  0  0  0
   28.1268    0.5820  -10.1476 C   0  0  0  0  0  0  0  0  0  0  0  0
   28.2318   -0.4936   -9.2933 C   0  0  0  0  0  0  0  0  0  0  0  0
   27.1804   -1.3317   -9.0107 C   0  0  0  0  0  0  0  0  0  0  0  0
   27.4005   -2.8103   -7.8099 Br  0  0  0  0  0  0  0  0  0  0  0  0
   25.9524   -1.0800   -9.6175 C   0  0  0  0  0  0  0  0  0  0  0  0
   24.2619   -0.8853  -11.9884 N   0  0  0  0  0  0  0  0  0  0  0  0
   23.2201   -1.7976  -11.7919 C   0  0  0  0  0  0  0  0  0  0  0  0
   22.8794   -2.9170  -12.4562 N   0  0  0  0  0  0  0  0  0  0  0  0
   21.8164   -3.3799  -11.8407 N   0  0  0  0  0  0  0  0  0  0  0  0
   21.5040   -2.5892  -10.8374 N   0  0  0  0  0  0  0  0  0  0  0  0
   22.3678   -1.5899  -10.7847 N   0  0  0  0  0  0  0  0  0  0  0  0
  1  2  1  0
  2  3  2  0
  3  4  1  0
  4  5  2  0
  5  6  1  0
  5  7  1  0
  7  8  2  0
  9  8  1  6
 10  9  1  6
 10 11  1  0
 11 12  1  1
 12 13  2  0
 13 14  1  0
 14 15  2  0
 15 16  1  0
 16 17  1  0
 16 18  2  0
 11 19  1  0
 19 20  1  0
 20 21  2  0
 21 22  1  0
 22 23  2  0
 23 24  1  0
  8  2  1  0
 24  9  1  0
 18 12  1  0
 24 20  1  0
M  END
$$$$
