_rank12
     RDKit          3D

 21 23  0  0  0  0  0  0  0  0999 V2000
   18.9925   -3.3887  -11.4505 C   0  0  0  0  0  0  0  0  0  0  0  0
   18.7413   -2.0026  -11.5022 O   0  0  0  0  0  0  0  0  0  0  0  0
   19.6198   -1.0678  -11.0102 C   0  0  0  0  0  0  0  0  0  0  0  0
   19.1684   -0.0202  -10.2632 C   0  0  0  0  0  0  0  0  0  0  0  0
   20.0325    0.9354   -9.7555 C   0  0  0  0  0  0  0  0  0  0  0  0
   21.3990    0.8036  -10.0277 C   0  0  0  0  0  0  0  0  0  0  0  0
   21.8826   -0.2417  -10.7771 C   0  0  0  0  0  0  0  0  0  0  0  0
   23.2515   -0.3375  -11.0556 N   0  0  0  0  0  0  0  0  0  0  0  0
   24.2566   -0.1981  -10.0781 C   0  0  0  0  0  0  0  0  0  0  0  0
   24.0185   -0.1743   -8.7253 C   0  0  0  0  0  0  0  0  0  0  0  0
   25.0581   -0.0514   -7.7971 C   0  0  0  0  0  0  0  0  0  0  0  0
   26.3483    0.0478   -8.2651 C   0  0  0  0  0  0  0  0  0  0  0  0
   27.5396    0.1739   -7.6538 N   0  0  0  0  0  0  0  0  0  0  0  0
   28.4758    0.2280   -8.5555 O   0  0  0  0  0  0  0  0  0  0  0  0
   27.9553    0.1426   -9.7483 N   0  0  0  0  0  0  0  0  0  0  0  0
   26.6289    0.0286   -9.6144 C   0  0  0  0  0  0  0  0  0  0  0  0
   25.5911   -0.0923  -10.4947 C   0  0  0  0  0  0  0  0  0  0  0  0
   25.8412   -0.1150  -11.8706 N   0  0  0  0  0  4  0  0  0  0  0  0
   27.0011   -0.4336  -12.2462 O   0  0  0  0  0  0  0  0  0  0  0  0
   24.9157    0.1847  -12.8380 O   0  0  0  0  0  1  0  0  0  0  0  0
   20.9947   -1.1677  -11.2629 C   0  0  0  0  0  0  0  0  0  0  0  0
  1  2  1  1
  2  3  1  0
  3  4  2  0
  4  5  1  0
  5  6  2  0
  6  7  1  0
  7  8  1  0
  8  9  1  0
  9 10  1  0
 10 11  2  0
 11 12  1  0
 12 13  2  0
 13 14  1  0
 14 15  1  0
 15 16  2  0
 16 17  1  0
 17 18  1  0
 18 19  2  0
 18 20  1  0
  7 21  2  0
 21  3  1  0
 17  9  2  0
 16 12  1  0
M  CHG  2  18   1  20  -1
M  END
$$$$
