_rank6
     RDKit          3D

 24 27  0  0  0  0  0  0  0  0999 V2000
   25.7672    1.3866  -13.1448 Cl  0  0  0  0  0  0  0  0  0  0  0  0
   26.3856    0.8274  -11.6117 C   0  0  0  0  0  0  0  0  0  0  0  0
   27.6783    1.0717  -11.2045 C   0  0  0  0  0  0  0  0  0  0  0  0
   28.1377    0.6123   -9.9693 C   0  0  0  0  0  0  0  0  0  0  0  0
   27.2884   -0.0976   -9.1397 C   0  0  0  0  0  0  0  0  0  0  0  0
   27.8932   -0.7321   -7.4537 Br  0  0  0  0  0  0  0  0  0  0  0  0
   25.9847   -0.3447   -9.5488 C   0  0  0  0  0  0  0  0  0  0  0  0
   25.5274    0.1086  -10.7709 C   0  0  0  0  0  0  0  0  0  0  0  0
   24.1264   -0.1755  -11.1832 C   0  0  2  0  0  0  0  0  0  0  0  0
   23.1665   -0.0390  -10.0770 C   0  0  0  0  0  0  0  0  0  0  0  0
   22.1016   -1.0400   -9.9064 C   0  0  1  0  0  0  0  0  0  0  0  0
   20.7672   -0.4974  -10.2745 C   0  0  0  0  0  0  0  0  0  0  0  0
   20.0580   -1.0297  -11.3303 C   0  0  0  0  0  0  0  0  0  0  0  0
   18.8190   -0.5319  -11.6818 C   0  0  0  0  0  0  0  0  0  0  0  0
   18.3228    0.5150  -10.9364 C   0  0  0  0  0  0  0  0  0  0  0  0
   19.0017    1.0697   -9.8785 C   0  0  0  0  0  0  0  0  0  0  0  0
   18.2478    2.5263   -8.8851 Br  0  0  0  0  0  0  0  0  0  0  0  0
   20.2493    0.5476   -9.5463 C   0  0  0  0  0  0  0  0  0  0  0  0
   22.2580   -2.2619  -10.6597 N   0  0  0  0  0  0  0  0  0  0  0  0
   23.2273   -2.4289  -11.6540 C   0  0  0  0  0  0  0  0  0  0  0  0
   23.4832   -3.4560  -12.4849 N   0  0  0  0  0  0  0  0  0  0  0  0
   24.5071   -3.0724  -13.2112 N   0  0  0  0  0  0  0  0  0  0  0  0
   24.8770   -1.8620  -12.8540 N   0  0  0  0  0  0  0  0  0  0  0  0
   24.0914   -1.4357  -11.8800 N   0  0  0  0  0  0  0  0  0  0  0  0
  1  2  1  0
  2  3  2  0
  3  4  1  0
  4  5  2  0
  5  6  1  0
  5  7  1  0
  7  8  2  0
  9  8  1  1
 10  9  1  6
 10 11  1  0
 11 12  1  6
 12 13  2  0
 13 14  1  0
 14 15  2  0
 15 16  1  0
 16 17  1  0
 16 18  2  0
 11 19  1  0
 19 20  1  0
 20 21  2  0
 21 22  1  0
 22 23  2  0
 23 24  1  0
  8  2  1  0
 24  9  1  0
 18 12  1  0
 24 20  1  0
M  END
$$$$
