_rank11
     RDKit          3D

 24 27  0  0  0  0  0  0  0  0999 V2000
   21.2344   -3.4375  -10.9466 Cl  0  0  0  0  0  0  0  0  0  0  0  0
   20.5026   -1.8993  -10.5676 C   0  0  0  0  0  0  0  0  0  0  0  0
   19.1559   -1.7661  -10.3124 C   0  0  0  0  0  0  0  0  0  0  0  0
   18.6055   -0.5201  -10.0086 C   0  0  0  0  0  0  0  0  0  0  0  0
   19.4181    0.5984   -9.9619 C   0  0  0  0  0  0  0  0  0  0  0  0
   18.6895    2.3045   -9.5500 Br  0  0  0  0  0  0  0  0  0  0  0  0
   20.7762    0.4659  -10.2189 C   0  0  0  0  0  0  0  0  0  0  0  0
   21.3236   -0.7662  -10.5200 C   0  0  0  0  0  0  0  0  0  0  0  0
   22.7816   -0.8756  -10.7947 C   0  0  2  0  0  0  0  0  0  0  0  0
   23.6064   -0.2034   -9.7790 C   0  0  0  0  0  0  0  0  0  0  0  0
   24.7590    0.6106  -10.1959 C   0  0  1  0  0  0  0  0  0  0  0  0
   26.0505   -0.0514   -9.8735 C   0  0  0  0  0  0  0  0  0  0  0  0
   26.6288   -0.9353  -10.7597 C   0  0  0  0  0  0  0  0  0  0  0  0
   27.8267   -1.5572  -10.4691 C   0  0  0  0  0  0  0  0  0  0  0  0
   28.4181   -1.2588   -9.2611 C   0  0  0  0  0  0  0  0  0  0  0  0
   27.8705   -0.3835   -8.3546 C   0  0  0  0  0  0  0  0  0  0  0  0
   28.7515   -0.0159   -6.6916 Br  0  0  0  0  0  0  0  0  0  0  0  0
   26.6615    0.2292   -8.6741 C   0  0  0  0  0  0  0  0  0  0  0  0
   24.8205    0.9448  -11.5993 N   0  0  0  0  0  0  0  0  0  0  0  0
   23.9790    0.3735  -12.5594 C   0  0  0  0  0  0  0  0  0  0  0  0
   23.9270    0.5163  -13.8964 N   0  0  0  0  0  0  0  0  0  0  0  0
   22.9413   -0.2544  -14.2930 N   0  0  0  0  0  0  0  0  0  0  0  0
   22.3996   -0.8531  -13.2549 N   0  0  0  0  0  0  0  0  0  0  0  0
   23.0313   -0.4770  -12.1563 N   0  0  0  0  0  0  0  0  0  0  0  0
  1  2  1  0
  2  3  2  0
  3  4  1  0
  4  5  2  0
  5  6  1  0
  5  7  1  0
  7  8  2  0
  9  8  1  1
 10  9  1  6
 10 11  1  0
 11 12  1  6
 12 13  2  0
 13 14  1  0
 14 15  2  0
 15 16  1  0
 16 17  1  0
 16 18  2  0
 11 19  1  0
 19 20  1  0
 20 21  2  0
 21 22  1  0
 22 23  2  0
 23 24  1  0
  8  2  1  0
 24  9  1  0
 18 12  1  0
 24 20  1  0
M  END
$$$$
