_rank10
     RDKit          3D

 27 29  0  0  0  0  0  0  0  0999 V2000
   27.1617    0.6560   -6.7128 C   0  0  0  0  0  0  0  0  0  0  0  0
   27.3587   -0.7305   -7.2280 C   0  0  0  0  0  0  0  0  0  0  0  0
   27.6129   -0.8076   -8.9692 S   0  0  2  0  0  6  0  0  0  0  0  0
   28.2933   -2.0992   -9.3058 O   0  0  0  0  0  0  0  0  0  0  0  0
   28.5840    0.2920   -9.3288 O   0  0  0  0  0  0  0  0  0  0  0  0
   26.1371   -0.6658   -9.8789 C   0  0  0  0  0  0  0  0  0  0  0  0
   24.9239   -0.8533   -9.2570 C   0  0  0  0  0  0  0  0  0  0  0  0
   23.7243   -0.7436   -9.9694 C   0  0  0  0  0  0  0  0  0  0  0  0
   23.7426   -0.4475  -11.2980 C   0  0  0  0  0  0  0  0  0  0  0  0
   22.5339   -0.3364  -12.0189 O   0  0  0  0  0  0  0  0  0  0  0  0
   21.3500   -0.6815  -11.3871 C   0  0  0  0  0  0  0  0  0  0  0  0
   20.8110   -1.9601  -11.4505 C   0  0  0  0  0  0  0  0  0  0  0  0
   19.6266   -2.2750  -10.8090 C   0  0  0  0  0  0  0  0  0  0  0  0
   19.0825   -3.5105  -10.8557 F   0  0  0  0  0  0  0  0  0  0  0  0
   18.9743   -1.2944  -10.0945 C   0  0  0  0  0  0  0  0  0  0  0  0
   19.4723   -0.0109  -10.0040 C   0  0  0  0  0  0  0  0  0  0  0  0
   18.7635    0.9840   -9.2497 C   0  0  0  0  0  0  0  0  0  0  0  0
   18.1769    1.7820   -8.6541 N   0  0  0  0  0  0  0  0  0  0  0  0
   20.6631    0.2650  -10.6617 C   0  0  0  0  0  0  0  0  0  0  0  0
   24.9508   -0.2592  -11.9250 C   0  0  0  0  0  0  0  0  0  0  0  0
   26.1256   -0.3688  -11.2175 C   0  0  0  0  0  0  0  0  0  0  0  0
   27.2549   -0.1123  -12.1728 C   0  0  2  0  0  0  0  0  0  0  0  0
   28.2936    0.5764  -11.6092 O   0  0  0  0  0  0  0  0  0  0  0  0
   26.5811    0.7977  -13.1788 C   0  0  1  0  0  0  0  0  0  0  0  0
   26.2822    2.0287  -12.6167 F   0  0  0  0  0  0  0  0  0  0  0  0
   27.2609    0.9018  -14.3534 F   0  0  0  0  0  0  0  0  0  0  0  0
   25.2405    0.0692  -13.3474 C   0  0  0  0  0  0  0  0  0  0  0  0
  2  1  1  6
  2  3  1  0
  3  4  2  0
  3  5  2  0
  3  6  1  6
  6  7  2  0
  7  8  1  0
  8  9  2  0
  9 10  1  0
 10 11  1  0
 11 12  2  0
 12 13  1  0
 13 14  1  0
 13 15  2  0
 15 16  1  0
 16 17  1  0
 17 18  3  0
 16 19  2  0
  9 20  1  0
 20 21  2  0
 21 22  1  0
 22 23  1  1
 22 24  1  0
 24 25  1  1
 24 26  1  0
 24 27  1  0
 21  6  1  0
 19 11  1  0
 27 20  1  6
M  END
$$$$
