_rank19
     RDKit          3D

 27 29  0  0  0  0  0  0  0  0999 V2000
   27.9136   -2.9789   -8.2393 C   0  0  0  0  0  0  0  0  0  0  0  0
   28.4803   -1.6787   -8.7030 C   0  0  0  0  0  0  0  0  0  0  0  0
   27.4400   -0.2964   -8.3722 S   0  0  2  0  0  6  0  0  0  0  0  0
   28.2148    0.9641   -8.6073 O   0  0  0  0  0  0  0  0  0  0  0  0
   27.1117   -0.3262   -6.8982 O   0  0  0  0  0  0  0  0  0  0  0  0
   25.9938   -0.2869   -9.3387 C   0  0  0  0  0  0  0  0  0  0  0  0
   24.7679   -0.4852   -8.7458 C   0  0  0  0  0  0  0  0  0  0  0  0
   23.5916   -0.4810   -9.5040 C   0  0  0  0  0  0  0  0  0  0  0  0
   23.6458   -0.2791  -10.8492 C   0  0  0  0  0  0  0  0  0  0  0  0
   22.4606   -0.2744  -11.6162 O   0  0  0  0  0  0  0  0  0  0  0  0
   21.2537   -0.5014  -10.9747 C   0  0  0  0  0  0  0  0  0  0  0  0
   20.6073    0.4736  -10.2257 C   0  0  0  0  0  0  0  0  0  0  0  0
   19.4025    0.2174   -9.5963 C   0  0  0  0  0  0  0  0  0  0  0  0
   18.7547    1.1485   -8.8627 F   0  0  0  0  0  0  0  0  0  0  0  0
   18.8387   -1.0335   -9.7197 C   0  0  0  0  0  0  0  0  0  0  0  0
   19.4448   -2.0325  -10.4532 C   0  0  0  0  0  0  0  0  0  0  0  0
   18.8260   -3.3238  -10.5585 C   0  0  0  0  0  0  0  0  0  0  0  0
   18.3114   -4.3545  -10.6505 N   0  0  0  0  0  0  0  0  0  0  0  0
   20.6526   -1.7357  -11.0695 C   0  0  0  0  0  0  0  0  0  0  0  0
   24.8669   -0.0805  -11.4474 C   0  0  0  0  0  0  0  0  0  0  0  0
   26.0186   -0.0860  -10.6948 C   0  0  0  0  0  0  0  0  0  0  0  0
   27.1700    0.1538  -11.6278 C   0  0  2  0  0  0  0  0  0  0  0  0
   28.1567    0.9273  -11.0809 O   0  0  0  0  0  0  0  0  0  0  0  0
   26.4949    0.9587  -12.7188 C   0  0  1  0  0  0  0  0  0  0  0  0
   26.1227    2.2113  -12.2575 F   0  0  0  0  0  0  0  0  0  0  0  0
   27.2122    1.0105  -13.8745 F   0  0  0  0  0  0  0  0  0  0  0  0
   25.1941    0.1596  -12.8792 C   0  0  0  0  0  0  0  0  0  0  0  0
  2  1  1  6
  2  3  1  0
  3  4  2  0
  3  5  2  0
  3  6  1  6
  6  7  2  0
  7  8  1  0
  8  9  2  0
  9 10  1  0
 10 11  1  0
 11 12  2  0
 12 13  1  0
 13 14  1  0
 13 15  2  0
 15 16  1  0
 16 17  1  0
 17 18  3  0
 16 19  2  0
  9 20  1  0
 20 21  2  0
 21 22  1  0
 22 23  1  1
 22 24  1  0
 24 25  1  1
 24 26  1  0
 24 27  1  0
 21  6  1  0
 19 11  1  0
 27 20  1  6
M  END
$$$$
