_rank5
     RDKit          3D

 27 29  0  0  0  0  0  0  0  0999 V2000
   28.5941    1.1351   -9.2654 C   0  0  0  0  0  0  0  0  0  0  0  0
   28.2746    0.1207   -8.2187 C   0  0  0  0  0  0  0  0  0  0  0  0
   27.4269   -1.2927   -8.8401 S   0  0  2  0  0  6  0  0  0  0  0  0
   27.0948   -2.2032   -7.6977 O   0  0  0  0  0  0  0  0  0  0  0  0
   28.3978   -2.0467   -9.7177 O   0  0  0  0  0  0  0  0  0  0  0  0
   25.9763   -0.8876   -9.7103 C   0  0  0  0  0  0  0  0  0  0  0  0
   24.7486   -1.0231   -9.1035 C   0  0  0  0  0  0  0  0  0  0  0  0
   23.5688   -0.7027   -9.7847 C   0  0  0  0  0  0  0  0  0  0  0  0
   23.6213   -0.2491  -11.0672 C   0  0  0  0  0  0  0  0  0  0  0  0
   22.4326    0.0748  -11.7564 O   0  0  0  0  0  0  0  0  0  0  0  0
   21.2175   -0.2146  -11.1567 C   0  0  0  0  0  0  0  0  0  0  0  0
   20.5244    0.7075  -10.3830 C   0  0  0  0  0  0  0  0  0  0  0  0
   19.3126    0.3894   -9.7966 C   0  0  0  0  0  0  0  0  0  0  0  0
   18.6198    1.2684   -9.0401 F   0  0  0  0  0  0  0  0  0  0  0  0
   18.7892   -0.8703   -9.9889 C   0  0  0  0  0  0  0  0  0  0  0  0
   19.4424   -1.8181  -10.7493 C   0  0  0  0  0  0  0  0  0  0  0  0
   18.8648   -3.1206  -10.9268 C   0  0  0  0  0  0  0  0  0  0  0  0
   18.4100   -4.1754  -11.0534 N   0  0  0  0  0  0  0  0  0  0  0  0
   20.6556   -1.4601  -11.3208 C   0  0  0  0  0  0  0  0  0  0  0  0
   24.8441   -0.1116  -11.6788 C   0  0  0  0  0  0  0  0  0  0  0  0
   25.9992   -0.4288  -11.0022 C   0  0  0  0  0  0  0  0  0  0  0  0
   27.1516   -0.1754  -11.9304 C   0  0  2  0  0  0  0  0  0  0  0  0
   28.2550    0.3272  -11.2974 O   0  0  0  0  0  0  0  0  0  0  0  0
   26.5790    0.9164  -12.8103 C   0  0  1  0  0  0  0  0  0  0  0  0
   26.4087    2.0933  -12.0986 F   0  0  0  0  0  0  0  0  0  0  0  0
   27.2689    1.0930  -13.9703 F   0  0  0  0  0  0  0  0  0  0  0  0
   25.1701    0.3574  -13.0531 C   0  0  0  0  0  0  0  0  0  0  0  0
  2  1  1  6
  2  3  1  0
  3  4  2  0
  3  5  2  0
  3  6  1  6
  6  7  2  0
  7  8  1  0
  8  9  2  0
  9 10  1  0
 10 11  1  0
 11 12  2  0
 12 13  1  0
 13 14  1  0
 13 15  2  0
 15 16  1  0
 16 17  1  0
 17 18  3  0
 16 19  2  0
  9 20  1  0
 20 21  2  0
 21 22  1  0
 22 23  1  1
 22 24  1  0
 24 25  1  1
 24 26  1  0
 24 27  1  0
 21  6  1  0
 19 11  1  0
 27 20  1  6
M  END
$$$$
