_rank1
     RDKit          3D

 27 29  0  0  0  0  0  0  0  0999 V2000
   28.0605    1.5591   -8.2698 C   0  0  0  0  0  0  0  0  0  0  0  0
   28.6218    0.3043   -8.8506 C   0  0  0  0  0  0  0  0  0  0  0  0
   27.4787   -1.0356   -8.8755 S   0  0  2  0  0  6  0  0  0  0  0  0
   27.1486   -1.4208   -7.4659 O   0  0  0  0  0  0  0  0  0  0  0  0
   28.1908   -2.2199   -9.4852 O   0  0  0  0  0  0  0  0  0  0  0  0
   26.0165   -0.6663   -9.7422 C   0  0  0  0  0  0  0  0  0  0  0  0
   24.8053   -0.6862   -9.0894 C   0  0  0  0  0  0  0  0  0  0  0  0
   23.6165   -0.3919   -9.7669 C   0  0  0  0  0  0  0  0  0  0  0  0
   23.6439   -0.0796  -11.0917 C   0  0  0  0  0  0  0  0  0  0  0  0
   22.4461    0.2176  -11.7774 O   0  0  0  0  0  0  0  0  0  0  0  0
   21.2429   -0.1721  -11.2115 C   0  0  0  0  0  0  0  0  0  0  0  0
   20.7214   -1.4504  -11.3640 C   0  0  0  0  0  0  0  0  0  0  0  0
   19.5170   -1.8106  -10.7868 C   0  0  0  0  0  0  0  0  0  0  0  0
   18.9892   -3.0468  -10.9206 F   0  0  0  0  0  0  0  0  0  0  0  0
   18.8267   -0.8759  -10.0468 C   0  0  0  0  0  0  0  0  0  0  0  0
   19.3061    0.4053   -9.8685 C   0  0  0  0  0  0  0  0  0  0  0  0
   18.5576    1.3516   -9.0902 C   0  0  0  0  0  0  0  0  0  0  0  0
   17.9700    2.1266   -8.4659 N   0  0  0  0  0  0  0  0  0  0  0  0
   20.5180    0.7274  -10.4637 C   0  0  0  0  0  0  0  0  0  0  0  0
   24.8502   -0.0579  -11.7494 C   0  0  0  0  0  0  0  0  0  0  0  0
   26.0142   -0.3485  -11.0760 C   0  0  0  0  0  0  0  0  0  0  0  0
   27.1441   -0.2424  -12.0588 C   0  0  2  0  0  0  0  0  0  0  0  0
   28.2859    0.2789  -11.5153 O   0  0  0  0  0  0  0  0  0  0  0  0
   26.5843    0.7723  -13.0340 C   0  0  1  0  0  0  0  0  0  0  0  0
   26.4819    2.0240  -12.4482 F   0  0  0  0  0  0  0  0  0  0  0  0
   27.2419    0.7962  -14.2256 F   0  0  0  0  0  0  0  0  0  0  0  0
   25.1482    0.2487  -13.1749 C   0  0  0  0  0  0  0  0  0  0  0  0
  2  1  1  6
  2  3  1  0
  3  4  2  0
  3  5  2  0
  3  6  1  6
  6  7  2  0
  7  8  1  0
  8  9  2  0
  9 10  1  0
 10 11  1  0
 11 12  2  0
 12 13  1  0
 13 14  1  0
 13 15  2  0
 15 16  1  0
 16 17  1  0
 17 18  3  0
 16 19  2  0
  9 20  1  0
 20 21  2  0
 21 22  1  0
 22 23  1  1
 22 24  1  0
 24 25  1  1
 24 26  1  0
 24 27  1  0
 21  6  1  0
 19 11  1  0
 27 20  1  6
M  END
$$$$
