_rank11
     RDKit          3D

 27 29  0  0  0  0  0  0  0  0999 V2000
   27.9118    1.1811   -7.2421 C   0  0  0  0  0  0  0  0  0  0  0  0
   28.4957    0.5234   -8.4476 C   0  0  0  0  0  0  0  0  0  0  0  0
   27.6326   -0.9280   -8.9483 S   0  0  2  0  0  6  0  0  0  0  0  0
   27.3180   -1.7506   -7.7364 O   0  0  0  0  0  0  0  0  0  0  0  0
   28.5852   -1.7489   -9.7849 O   0  0  0  0  0  0  0  0  0  0  0  0
   26.1680   -0.5816   -9.8203 C   0  0  0  0  0  0  0  0  0  0  0  0
   24.9537   -0.6327   -9.1749 C   0  0  0  0  0  0  0  0  0  0  0  0
   23.7629   -0.3573   -9.8569 C   0  0  0  0  0  0  0  0  0  0  0  0
   23.7913   -0.0325  -11.1786 C   0  0  0  0  0  0  0  0  0  0  0  0
   22.5916    0.2457  -11.8688 O   0  0  0  0  0  0  0  0  0  0  0  0
   21.3993   -0.2280  -11.3453 C   0  0  0  0  0  0  0  0  0  0  0  0
   20.9926   -1.5491  -11.4818 C   0  0  0  0  0  0  0  0  0  0  0  0
   19.7963   -1.9932  -10.9480 C   0  0  0  0  0  0  0  0  0  0  0  0
   19.3790   -3.2724  -11.0673 F   0  0  0  0  0  0  0  0  0  0  0  0
   18.9974   -1.1002  -10.2683 C   0  0  0  0  0  0  0  0  0  0  0  0
   19.3607    0.2210  -10.1081 C   0  0  0  0  0  0  0  0  0  0  0  0
   18.5012    1.1218   -9.3932 C   0  0  0  0  0  0  0  0  0  0  0  0
   17.8056    1.8324   -8.8042 N   0  0  0  0  0  0  0  0  0  0  0  0
   20.5685    0.6274  -10.6584 C   0  0  0  0  0  0  0  0  0  0  0  0
   25.0006    0.0203  -11.8289 C   0  0  0  0  0  0  0  0  0  0  0  0
   26.1666   -0.2519  -11.1513 C   0  0  0  0  0  0  0  0  0  0  0  0
   27.2997   -0.1135  -12.1263 C   0  0  2  0  0  0  0  0  0  0  0  0
   28.4272    0.4267  -11.5715 O   0  0  0  0  0  0  0  0  0  0  0  0
   26.7244    0.8980  -13.0959 C   0  0  1  0  0  0  0  0  0  0  0  0
   26.5924    2.1420  -12.4997 F   0  0  0  0  0  0  0  0  0  0  0  0
   27.3882    0.9464  -14.2833 F   0  0  0  0  0  0  0  0  0  0  0  0
   25.3004    0.3458  -13.2499 C   0  0  0  0  0  0  0  0  0  0  0  0
  2  1  1  6
  2  3  1  0
  3  4  2  0
  3  5  2  0
  3  6  1  6
  6  7  2  0
  7  8  1  0
  8  9  2  0
  9 10  1  0
 10 11  1  0
 11 12  2  0
 12 13  1  0
 13 14  1  0
 13 15  2  0
 15 16  1  0
 16 17  1  0
 17 18  3  0
 16 19  2  0
  9 20  1  0
 20 21  2  0
 21 22  1  0
 22 23  1  1
 22 24  1  0
 24 25  1  1
 24 26  1  0
 24 27  1  0
 21  6  1  0
 19 11  1  0
 27 20  1  6
M  END
$$$$
