_rank18
     RDKit          3D

 27 29  0  0  0  0  0  0  0  0999 V2000
   29.4723   -1.9349   -7.6462 C   0  0  0  0  0  0  0  0  0  0  0  0
   28.4275   -1.7367   -8.6930 C   0  0  0  0  0  0  0  0  0  0  0  0
   27.5050   -0.2490   -8.4977 S   0  0  2  0  0  6  0  0  0  0  0  0
   28.3857    0.9174   -8.8268 O   0  0  0  0  0  0  0  0  0  0  0  0
   27.1624   -0.1241   -7.0319 O   0  0  0  0  0  0  0  0  0  0  0  0
   26.0734   -0.2019   -9.4845 C   0  0  0  0  0  0  0  0  0  0  0  0
   24.8373   -0.4059   -8.9150 C   0  0  0  0  0  0  0  0  0  0  0  0
   23.6724   -0.3721   -9.6898 C   0  0  0  0  0  0  0  0  0  0  0  0
   23.7480   -0.1348  -11.0282 C   0  0  0  0  0  0  0  0  0  0  0  0
   22.5743   -0.1001  -11.8120 O   0  0  0  0  0  0  0  0  0  0  0  0
   21.3692   -0.4394  -11.2183 C   0  0  0  0  0  0  0  0  0  0  0  0
   20.8391   -1.7219  -11.2768 C   0  0  0  0  0  0  0  0  0  0  0  0
   19.6330   -2.0308  -10.6740 C   0  0  0  0  0  0  0  0  0  0  0  0
   19.0969   -3.2700  -10.7167 F   0  0  0  0  0  0  0  0  0  0  0  0
   18.9498   -1.0401  -10.0037 C   0  0  0  0  0  0  0  0  0  0  0  0
   19.4379    0.2476   -9.9198 C   0  0  0  0  0  0  0  0  0  0  0  0
   18.6967    1.2531   -9.2121 C   0  0  0  0  0  0  0  0  0  0  0  0
   18.1138    2.0762   -8.6477 N   0  0  0  0  0  0  0  0  0  0  0  0
   20.6512    0.5172  -10.5378 C   0  0  0  0  0  0  0  0  0  0  0  0
   24.9792    0.0697  -11.6031 C   0  0  0  0  0  0  0  0  0  0  0  0
   26.1197    0.0347  -10.8343 C   0  0  0  0  0  0  0  0  0  0  0  0
   27.2866    0.2899  -11.7437 C   0  0  2  0  0  0  0  0  0  0  0  0
   28.2710    1.0405  -11.1620 O   0  0  0  0  0  0  0  0  0  0  0  0
   26.6339    1.1291  -12.8225 C   0  0  1  0  0  0  0  0  0  0  0  0
   26.2646    2.3719  -12.3333 F   0  0  0  0  0  0  0  0  0  0  0  0
   27.3685    1.2057  -13.9658 F   0  0  0  0  0  0  0  0  0  0  0  0
   25.3294    0.3451  -13.0231 C   0  0  0  0  0  0  0  0  0  0  0  0
  2  1  1  6
  2  3  1  0
  3  4  2  0
  3  5  2  0
  3  6  1  6
  6  7  2  0
  7  8  1  0
  8  9  2  0
  9 10  1  0
 10 11  1  0
 11 12  2  0
 12 13  1  0
 13 14  1  0
 13 15  2  0
 15 16  1  0
 16 17  1  0
 17 18  3  0
 16 19  2  0
  9 20  1  0
 20 21  2  0
 21 22  1  0
 22 23  1  1
 22 24  1  0
 24 25  1  1
 24 26  1  0
 24 27  1  0
 21  6  1  0
 19 11  1  0
 27 20  1  6
M  END
$$$$
