_rank2
     RDKit          3D

 27 29  0  0  0  0  0  0  0  0999 V2000
   27.8074    1.4693   -8.5595 C   0  0  0  0  0  0  0  0  0  0  0  0
   28.3085    0.1652   -8.0352 C   0  0  0  0  0  0  0  0  0  0  0  0
   27.5136   -1.2354   -8.7487 S   0  0  2  0  0  6  0  0  0  0  0  0
   27.1876   -2.2159   -7.6639 O   0  0  0  0  0  0  0  0  0  0  0  0
   28.5217   -1.9128   -9.6466 O   0  0  0  0  0  0  0  0  0  0  0  0
   26.0678   -0.8243   -9.6240 C   0  0  0  0  0  0  0  0  0  0  0  0
   24.8368   -0.9638   -9.0248 C   0  0  0  0  0  0  0  0  0  0  0  0
   23.6607   -0.6386   -9.7102 C   0  0  0  0  0  0  0  0  0  0  0  0
   23.7202   -0.1762  -10.9892 C   0  0  0  0  0  0  0  0  0  0  0  0
   22.5353    0.1525  -11.6827 O   0  0  0  0  0  0  0  0  0  0  0  0
   21.3196   -0.2265  -11.1367 C   0  0  0  0  0  0  0  0  0  0  0  0
   20.8238   -1.5203  -11.2353 C   0  0  0  0  0  0  0  0  0  0  0  0
   19.6060   -1.8692  -10.6797 C   0  0  0  0  0  0  0  0  0  0  0  0
   19.1027   -3.1201  -10.7620 F   0  0  0  0  0  0  0  0  0  0  0  0
   18.8760   -0.9076  -10.0164 C   0  0  0  0  0  0  0  0  0  0  0  0
   19.3288    0.3898   -9.8938 C   0  0  0  0  0  0  0  0  0  0  0  0
   18.5391    1.3642   -9.1949 C   0  0  0  0  0  0  0  0  0  0  0  0
   17.9134    2.1442   -8.6154 N   0  0  0  0  0  0  0  0  0  0  0  0
   20.5552    0.7000  -10.4650 C   0  0  0  0  0  0  0  0  0  0  0  0
   24.9463   -0.0346  -11.5932 C   0  0  0  0  0  0  0  0  0  0  0  0
   26.0978   -0.3565  -10.9125 C   0  0  0  0  0  0  0  0  0  0  0  0
   27.2552   -0.0968  -11.8327 C   0  0  2  0  0  0  0  0  0  0  0  0
   28.3552    0.4013  -11.1902 O   0  0  0  0  0  0  0  0  0  0  0  0
   26.6874    1.0011  -12.7081 C   0  0  1  0  0  0  0  0  0  0  0  0
   26.5133    2.1730  -11.9893 F   0  0  0  0  0  0  0  0  0  0  0  0
   27.3837    1.1855  -13.8631 F   0  0  0  0  0  0  0  0  0  0  0  0
   25.2799    0.4438  -12.9625 C   0  0  0  0  0  0  0  0  0  0  0  0
  2  1  1  6
  2  3  1  0
  3  4  2  0
  3  5  2  0
  3  6  1  6
  6  7  2  0
  7  8  1  0
  8  9  2  0
  9 10  1  0
 10 11  1  0
 11 12  2  0
 12 13  1  0
 13 14  1  0
 13 15  2  0
 15 16  1  0
 16 17  1  0
 17 18  3  0
 16 19  2  0
  9 20  1  0
 20 21  2  0
 21 22  1  0
 22 23  1  1
 22 24  1  0
 24 25  1  1
 24 26  1  0
 24 27  1  0
 21  6  1  0
 19 11  1  0
 27 20  1  6
M  END
$$$$
