_rank9
     RDKit          3D

 27 29  0  0  0  0  0  0  0  0999 V2000
   27.8208    1.7064   -7.9064 C   0  0  0  0  0  0  0  0  0  0  0  0
   28.5147    0.4765   -8.3884 C   0  0  0  0  0  0  0  0  0  0  0  0
   27.4448   -0.9097   -8.5786 S   0  0  2  0  0  6  0  0  0  0  0  0
   27.1318   -1.4731   -7.2262 O   0  0  0  0  0  0  0  0  0  0  0  0
   28.2206   -1.9760   -9.3153 O   0  0  0  0  0  0  0  0  0  0  0  0
   25.9673   -0.5196   -9.4096 C   0  0  0  0  0  0  0  0  0  0  0  0
   24.8536   -0.1431   -8.6944 C   0  0  0  0  0  0  0  0  0  0  0  0
   23.6547    0.1756   -9.3423 C   0  0  0  0  0  0  0  0  0  0  0  0
   23.5746    0.1166  -10.7000 C   0  0  0  0  0  0  0  0  0  0  0  0
   22.3665    0.4375  -11.3560 O   0  0  0  0  0  0  0  0  0  0  0  0
   21.1893   -0.1286  -10.8938 C   0  0  0  0  0  0  0  0  0  0  0  0
   20.5207    0.3423   -9.7710 C   0  0  0  0  0  0  0  0  0  0  0  0
   19.3467   -0.2437   -9.3333 C   0  0  0  0  0  0  0  0  0  0  0  0
   18.6783    0.1958   -8.2448 F   0  0  0  0  0  0  0  0  0  0  0  0
   18.8367   -1.3164  -10.0310 C   0  0  0  0  0  0  0  0  0  0  0  0
   19.4665   -1.8179  -11.1514 C   0  0  0  0  0  0  0  0  0  0  0  0
   18.9039   -2.9376  -11.8521 C   0  0  0  0  0  0  0  0  0  0  0  0
   18.4602   -3.8328  -12.4330 N   0  0  0  0  0  0  0  0  0  0  0  0
   20.6420   -1.2022  -11.5584 C   0  0  0  0  0  0  0  0  0  0  0  0
   24.6832   -0.2586  -11.4201 C   0  0  0  0  0  0  0  0  0  0  0  0
   25.8580   -0.5703  -10.7755 C   0  0  0  0  0  0  0  0  0  0  0  0
   26.8666   -0.9374  -11.8251 C   0  0  2  0  0  0  0  0  0  0  0  0
   28.1324   -0.5106  -11.5309 O   0  0  0  0  0  0  0  0  0  0  0  0
   26.3630   -0.1310  -13.0041 C   0  0  1  0  0  0  0  0  0  0  0  0
   26.5291    1.2276  -12.7873 F   0  0  0  0  0  0  0  0  0  0  0  0
   26.8710   -0.5439  -14.1975 F   0  0  0  0  0  0  0  0  0  0  0  0
   24.8557   -0.3995  -12.8916 C   0  0  0  0  0  0  0  0  0  0  0  0
  2  1  1  6
  2  3  1  0
  3  4  2  0
  3  5  2  0
  3  6  1  6
  6  7  2  0
  7  8  1  0
  8  9  2  0
  9 10  1  0
 10 11  1  0
 11 12  2  0
 12 13  1  0
 13 14  1  0
 13 15  2  0
 15 16  1  0
 16 17  1  0
 17 18  3  0
 16 19  2  0
  9 20  1  0
 20 21  2  0
 21 22  1  0
 22 23  1  1
 22 24  1  0
 24 25  1  1
 24 26  1  0
 24 27  1  0
 21  6  1  0
 19 11  1  0
 27 20  1  6
M  END
$$$$
