_rank3
     RDKit          3D

 27 29  0  0  0  0  0  0  0  0999 V2000
   29.5784    0.6872   -9.5529 C   0  0  0  0  0  0  0  0  0  0  0  0
   28.4315    0.6679   -8.5985 C   0  0  0  0  0  0  0  0  0  0  0  0
   27.4652   -0.8023   -8.6849 S   0  0  2  0  0  6  0  0  0  0  0  0
   27.0849   -1.2179   -7.2967 O   0  0  0  0  0  0  0  0  0  0  0  0
   28.3581   -1.8934   -9.2268 O   0  0  0  0  0  0  0  0  0  0  0  0
   26.0344   -0.6196   -9.6570 C   0  0  0  0  0  0  0  0  0  0  0  0
   24.7938   -0.8447   -9.1056 C   0  0  0  0  0  0  0  0  0  0  0  0
   23.6294   -0.7032   -9.8691 C   0  0  0  0  0  0  0  0  0  0  0  0
   23.7102   -0.3379  -11.1780 C   0  0  0  0  0  0  0  0  0  0  0  0
   22.5371   -0.1945  -11.9503 O   0  0  0  0  0  0  0  0  0  0  0  0
   21.3187   -0.5124  -11.3722 C   0  0  0  0  0  0  0  0  0  0  0  0
   20.7641   -1.7840  -11.4425 C   0  0  0  0  0  0  0  0  0  0  0  0
   19.5452   -2.0716  -10.8552 C   0  0  0  0  0  0  0  0  0  0  0  0
   18.9854   -3.2998  -10.9097 F   0  0  0  0  0  0  0  0  0  0  0  0
   18.8737   -1.0704  -10.1885 C   0  0  0  0  0  0  0  0  0  0  0  0
   19.3861    0.2070  -10.0933 C   0  0  0  0  0  0  0  0  0  0  0  0
   18.6564    1.2240   -9.3899 C   0  0  0  0  0  0  0  0  0  0  0  0
   18.0519    2.0344   -8.8301 N   0  0  0  0  0  0  0  0  0  0  0  0
   20.6116    0.4553  -10.6959 C   0  0  0  0  0  0  0  0  0  0  0  0
   24.9460   -0.1117  -11.7346 C   0  0  0  0  0  0  0  0  0  0  0  0
   26.0858   -0.2530  -10.9772 C   0  0  0  0  0  0  0  0  0  0  0  0
   27.2583    0.0582  -11.8615 C   0  0  2  0  0  0  0  0  0  0  0  0
   28.2636    0.7210  -11.2128 O   0  0  0  0  0  0  0  0  0  0  0  0
   26.6278    1.0167  -12.8505 C   0  0  1  0  0  0  0  0  0  0  0  0
   26.2934    2.2152  -12.2404 F   0  0  0  0  0  0  0  0  0  0  0  0
   27.3631    1.1851  -13.9835 F   0  0  0  0  0  0  0  0  0  0  0  0
   25.3021    0.2921  -13.1221 C   0  0  0  0  0  0  0  0  0  0  0  0
  2  1  1  6
  2  3  1  0
  3  4  2  0
  3  5  2  0
  3  6  1  6
  6  7  2  0
  7  8  1  0
  8  9  2  0
  9 10  1  0
 10 11  1  0
 11 12  2  0
 12 13  1  0
 13 14  1  0
 13 15  2  0
 15 16  1  0
 16 17  1  0
 17 18  3  0
 16 19  2  0
  9 20  1  0
 20 21  2  0
 21 22  1  0
 22 23  1  1
 22 24  1  0
 24 25  1  1
 24 26  1  0
 24 27  1  0
 21  6  1  0
 19 11  1  0
 27 20  1  6
M  END
$$$$
