_rank2
     RDKit          3D

 25 27  0  0  0  0  0  0  0  0999 V2000
   28.6108    0.9729   -8.9487 C   0  0  0  0  0  0  0  0  0  0  0  0
   27.5788   -0.4270   -8.6113 S   0  0  1  0  0  6  0  0  0  0  0  0
   28.2905   -1.7261   -8.6883 O   0  0  0  0  0  0  0  0  0  0  0  0
   27.1401   -0.2713   -7.1571 O   0  0  0  0  0  0  0  0  0  0  0  0
   26.1214   -0.4364   -9.5896 C   0  0  0  0  0  0  0  0  0  0  0  0
   24.9465   -0.9779   -9.1146 C   0  0  0  0  0  0  0  0  0  0  0  0
   23.8106   -0.9638   -9.8787 C   0  0  0  0  0  0  0  0  0  0  0  0
   23.8522   -0.3913  -11.1554 C   0  0  0  0  0  0  0  0  0  0  0  0
   22.6603   -0.4174  -11.8578 O   0  0  0  0  0  0  0  0  0  0  0  0
   21.4557   -0.7442  -11.2934 C   0  0  0  0  0  0  0  0  0  0  0  0
   20.9070   -2.0025  -11.3276 C   0  0  0  0  0  0  0  0  0  0  0  0
   19.6789   -2.2311  -10.7280 C   0  0  0  0  0  0  0  0  0  0  0  0
   19.1454   -3.4895  -10.7729 F   0  0  0  0  0  0  0  0  0  0  0  0
   18.9826   -1.2215  -10.0894 C   0  0  0  0  0  0  0  0  0  0  0  0
   19.5221    0.0644  -10.0424 C   0  0  0  0  0  0  0  0  0  0  0  0
   18.7830    1.0864   -9.3724 C   0  0  0  0  0  0  0  0  0  0  0  0
   18.1660    1.9432   -8.8347 N   0  0  0  0  0  0  0  0  0  0  0  0
   20.7286    0.2578  -10.6401 C   0  0  0  0  0  0  0  0  0  0  0  0
   25.0066    0.1519  -11.6514 C   0  0  0  0  0  0  0  0  0  0  0  0
   26.1532    0.1226  -10.8447 C   0  0  0  0  0  0  0  0  0  0  0  0
   27.2672    0.7701  -11.6109 C   0  0  1  0  0  0  0  0  0  0  0  0
   28.4879    0.1379  -11.3623 O   0  0  0  0  0  0  0  0  0  0  0  0
   26.8444    0.4814  -13.0324 C   0  0  1  0  0  0  0  0  0  0  0  0
   26.9504   -0.8705  -13.2598 F   0  0  0  0  0  0  0  0  0  0  0  0
   25.3434    0.7952  -12.9398 C   0  0  0  0  0  0  0  0  0  0  0  0
  1  2  1  1
  2  3  2  0
  2  4  2  0
  2  5  1  6
  5  6  2  0
  6  7  1  0
  7  8  2  0
  8  9  1  0
  9 10  1  0
 10 11  2  0
 11 12  1  0
 12 13  1  0
 12 14  2  0
 14 15  1  0
 15 16  1  0
 16 17  3  0
 15 18  2  0
  8 19  1  0
 19 20  2  0
 20 21  1  0
 21 22  1  1
 21 23  1  0
 23 24  1  1
 23 25  1  0
 20  5  1  0
 18 10  1  0
 25 19  1  1
M  END
$$$$
