_rank6
     RDKit          3D

 25 27  0  0  0  0  0  0  0  0999 V2000
   28.3997    1.1939   -8.6404 C   0  0  0  0  0  0  0  0  0  0  0  0
   27.7071   -0.4303   -8.7851 S   0  0  1  0  0  6  0  0  0  0  0  0
   28.6725   -1.4510   -9.2610 O   0  0  0  0  0  0  0  0  0  0  0  0
   27.3247   -0.8405   -7.3649 O   0  0  0  0  0  0  0  0  0  0  0  0
   26.2341   -0.4481   -9.7395 C   0  0  0  0  0  0  0  0  0  0  0  0
   25.0657   -0.9804   -9.2388 C   0  0  0  0  0  0  0  0  0  0  0  0
   23.9175   -0.9728   -9.9845 C   0  0  0  0  0  0  0  0  0  0  0  0
   23.9398   -0.4164  -11.2688 C   0  0  0  0  0  0  0  0  0  0  0  0
   22.7367   -0.4481  -11.9515 O   0  0  0  0  0  0  0  0  0  0  0  0
   21.5422   -0.7751  -11.3660 C   0  0  0  0  0  0  0  0  0  0  0  0
   21.0048   -2.0388  -11.3699 C   0  0  0  0  0  0  0  0  0  0  0  0
   19.7865   -2.2672  -10.7508 C   0  0  0  0  0  0  0  0  0  0  0  0
   19.2642   -3.5310  -10.7656 F   0  0  0  0  0  0  0  0  0  0  0  0
   19.0888   -1.2521  -10.1224 C   0  0  0  0  0  0  0  0  0  0  0  0
   19.6168    0.0392  -10.1061 C   0  0  0  0  0  0  0  0  0  0  0  0
   18.8766    1.0669   -9.4460 C   0  0  0  0  0  0  0  0  0  0  0  0
   18.2584    1.9280   -8.9167 N   0  0  0  0  0  0  0  0  0  0  0  0
   20.8140    0.2323  -10.7224 C   0  0  0  0  0  0  0  0  0  0  0  0
   25.0874    0.1175  -11.7901 C   0  0  0  0  0  0  0  0  0  0  0  0
   26.2469    0.0952  -11.0018 C   0  0  0  0  0  0  0  0  0  0  0  0
   27.3499    0.7301  -11.7940 C   0  0  1  0  0  0  0  0  0  0  0  0
   28.5729    0.0978  -11.5573 O   0  0  0  0  0  0  0  0  0  0  0  0
   26.9034    0.4248  -13.2047 C   0  0  1  0  0  0  0  0  0  0  0  0
   27.0023   -0.9301  -13.4169 F   0  0  0  0  0  0  0  0  0  0  0  0
   25.4048    0.7437  -13.0918 C   0  0  0  0  0  0  0  0  0  0  0  0
  1  2  1  1
  2  3  2  0
  2  4  2  0
  2  5  1  6
  5  6  2  0
  6  7  1  0
  7  8  2  0
  8  9  1  0
  9 10  1  0
 10 11  2  0
 11 12  1  0
 12 13  1  0
 12 14  2  0
 14 15  1  0
 15 16  1  0
 16 17  3  0
 15 18  2  0
  8 19  1  0
 19 20  2  0
 20 21  1  0
 21 22  1  1
 21 23  1  0
 23 24  1  1
 23 25  1  0
 20  5  1  0
 18 10  1  0
 25 19  1  1
M  END
$$$$
