_rank16
     RDKit          3D

 25 27  0  0  0  0  0  0  0  0999 V2000
   29.0270   -1.3087   -9.3897 C   0  0  0  0  0  0  0  0  0  0  0  0
   27.6957   -0.5190   -8.5282 S   0  0  1  0  0  6  0  0  0  0  0  0
   27.4400   -1.0814   -7.1796 O   0  0  0  0  0  0  0  0  0  0  0  0
   28.1493    0.9219   -8.3058 O   0  0  0  0  0  0  0  0  0  0  0  0
   26.2247   -0.4531   -9.4837 C   0  0  0  0  0  0  0  0  0  0  0  0
   25.0551   -1.0266   -9.0337 C   0  0  0  0  0  0  0  0  0  0  0  0
   23.9086   -0.9537   -9.7784 C   0  0  0  0  0  0  0  0  0  0  0  0
   23.9338   -0.2877  -11.0094 C   0  0  0  0  0  0  0  0  0  0  0  0
   22.7321   -0.2594  -11.6948 O   0  0  0  0  0  0  0  0  0  0  0  0
   21.5356   -0.6314  -11.1412 C   0  0  0  0  0  0  0  0  0  0  0  0
   21.0790   -1.9256  -11.0959 C   0  0  0  0  0  0  0  0  0  0  0  0
   19.8510   -2.1991  -10.5153 C   0  0  0  0  0  0  0  0  0  0  0  0
   19.4099   -3.4931  -10.4802 F   0  0  0  0  0  0  0  0  0  0  0  0
   19.0640   -1.1992   -9.9740 C   0  0  0  0  0  0  0  0  0  0  0  0
   19.5091    0.1226  -10.0089 C   0  0  0  0  0  0  0  0  0  0  0  0
   18.6775    1.1340   -9.4385 C   0  0  0  0  0  0  0  0  0  0  0  0
   17.9717    1.9602   -8.9662 N   0  0  0  0  0  0  0  0  0  0  0  0
   20.7180    0.3597  -10.5856 C   0  0  0  0  0  0  0  0  0  0  0  0
   25.0826    0.2891  -11.4798 C   0  0  0  0  0  0  0  0  0  0  0  0
   26.2404    0.1978  -10.6939 C   0  0  0  0  0  0  0  0  0  0  0  0
   27.3452    0.8989  -11.4255 C   0  0  1  0  0  0  0  0  0  0  0  0
   28.5676    0.2479  -11.2421 O   0  0  0  0  0  0  0  0  0  0  0  0
   26.9017    0.7176  -12.8584 C   0  0  1  0  0  0  0  0  0  0  0  0
   27.0008   -0.6137  -13.1874 F   0  0  0  0  0  0  0  0  0  0  0  0
   25.4030    1.0261  -12.7213 C   0  0  0  0  0  0  0  0  0  0  0  0
  1  2  1  1
  2  3  2  0
  2  4  2  0
  2  5  1  6
  5  6  2  0
  6  7  1  0
  7  8  2  0
  8  9  1  0
  9 10  1  0
 10 11  2  0
 11 12  1  0
 12 13  1  0
 12 14  2  0
 14 15  1  0
 15 16  1  0
 16 17  3  0
 15 18  2  0
  8 19  1  0
 19 20  2  0
 20 21  1  0
 21 22  1  6
 21 23  1  0
 23 24  1  1
 23 25  1  0
 20  5  1  0
 18 10  1  0
 25 19  1  1
M  END
$$$$
