_rank19
     RDKit          3D

 25 27  0  0  0  0  0  0  0  0999 V2000
   27.1035    2.0500   -8.6464 C   0  0  0  0  0  0  0  0  0  0  0  0
   27.0639    0.2801   -8.5790 S   0  0  1  0  0  6  0  0  0  0  0  0
   28.3122   -0.3638   -9.0561 O   0  0  0  0  0  0  0  0  0  0  0  0
   26.9473   -0.0709   -7.0976 O   0  0  0  0  0  0  0  0  0  0  0  0
   25.6521   -0.3895   -9.3787 C   0  0  0  0  0  0  0  0  0  0  0  0
   24.8462   -1.3132   -8.7489 C   0  0  0  0  0  0  0  0  0  0  0  0
   23.7369   -1.8157   -9.3745 C   0  0  0  0  0  0  0  0  0  0  0  0
   23.4256   -1.3810  -10.6682 C   0  0  0  0  0  0  0  0  0  0  0  0
   22.2873   -1.9374  -11.2245 O   0  0  0  0  0  0  0  0  0  0  0  0
   21.0577   -1.3344  -11.1954 C   0  0  0  0  0  0  0  0  0  0  0  0
   20.0458   -1.6091  -12.0822 C   0  0  0  0  0  0  0  0  0  0  0  0
   18.8367   -0.9417  -11.9703 C   0  0  0  0  0  0  0  0  0  0  0  0
   17.8401   -1.2254  -12.8627 F   0  0  0  0  0  0  0  0  0  0  0  0
   18.6153    0.0009  -10.9831 C   0  0  0  0  0  0  0  0  0  0  0  0
   19.6297    0.2950  -10.0714 C   0  0  0  0  0  0  0  0  0  0  0  0
   19.3715    1.2696   -9.0599 C   0  0  0  0  0  0  0  0  0  0  0  0
   19.1570    2.0632   -8.2066 N   0  0  0  0  0  0  0  0  0  0  0  0
   20.8051   -0.3760  -10.2069 C   0  0  0  0  0  0  0  0  0  0  0  0
   24.2101   -0.4655  -11.3164 C   0  0  0  0  0  0  0  0  0  0  0  0
   25.3392    0.0307  -10.6492 C   0  0  0  0  0  0  0  0  0  0  0  0
   26.0199    1.0032  -11.5648 C   0  0  1  0  0  0  0  0  0  0  0  0
   27.4093    0.9324  -11.4372 O   0  0  0  0  0  0  0  0  0  0  0  0
   25.6215    0.4542  -12.9149 C   0  0  1  0  0  0  0  0  0  0  0  0
   26.2445   -0.7572  -13.1015 F   0  0  0  0  0  0  0  0  0  0  0  0
   24.1375    0.1505  -12.6589 C   0  0  0  0  0  0  0  0  0  0  0  0
  1  2  1  1
  2  3  2  0
  2  4  2  0
  2  5  1  6
  5  6  2  0
  6  7  1  0
  7  8  2  0
  8  9  1  0
  9 10  1  0
 10 11  2  0
 11 12  1  0
 12 13  1  0
 12 14  2  0
 14 15  1  0
 15 16  1  0
 16 17  3  0
 15 18  2  0
  8 19  1  0
 19 20  2  0
 20 21  1  0
 21 22  1  6
 21 23  1  0
 23 24  1  1
 23 25  1  0
 20  5  1  0
 18 10  1  0
 25 19  1  1
M  END
$$$$
