_rank20
     RDKit          3D

 25 27  0  0  0  0  0  0  0  0999 V2000
   28.5713   -0.2622   -8.3124 C   0  0  0  0  0  0  0  0  0  0  0  0
   27.7727   -1.2077   -9.5799 S   0  0  1  0  0  6  0  0  0  0  0  0
   28.5539   -1.3008  -10.8375 O   0  0  0  0  0  0  0  0  0  0  0  0
   27.6811   -2.6304   -9.0334 O   0  0  0  0  0  0  0  0  0  0  0  0
   26.1306   -0.6675   -9.8849 C   0  0  0  0  0  0  0  0  0  0  0  0
   25.0498   -1.3259   -9.3393 C   0  0  0  0  0  0  0  0  0  0  0  0
   23.7739   -0.8855   -9.5684 C   0  0  0  0  0  0  0  0  0  0  0  0
   23.5742    0.2467  -10.3670 C   0  0  0  0  0  0  0  0  0  0  0  0
   22.2548    0.6237  -10.5447 O   0  0  0  0  0  0  0  0  0  0  0  0
   21.2267   -0.2681  -10.6995 C   0  0  0  0  0  0  0  0  0  0  0  0
   21.0445   -1.3758   -9.9087 C   0  0  0  0  0  0  0  0  0  0  0  0
   19.9723   -2.2201  -10.1484 C   0  0  0  0  0  0  0  0  0  0  0  0
   19.8064   -3.3201   -9.3529 F   0  0  0  0  0  0  0  0  0  0  0  0
   19.0709   -1.9788  -11.1689 C   0  0  0  0  0  0  0  0  0  0  0  0
   19.2370   -0.8587  -11.9841 C   0  0  0  0  0  0  0  0  0  0  0  0
   18.2885   -0.6320  -13.0274 C   0  0  0  0  0  0  0  0  0  0  0  0
   17.5000   -0.4643  -13.8958 N   0  0  0  0  0  0  0  0  0  0  0  0
   20.2988   -0.0491  -11.7245 C   0  0  0  0  0  0  0  0  0  0  0  0
   24.6303    0.9179  -10.9219 C   0  0  0  0  0  0  0  0  0  0  0  0
   25.9250    0.4426  -10.6685 C   0  0  0  0  0  0  0  0  0  0  0  0
   26.8892    1.3409  -11.3833 C   0  0  1  0  0  0  0  0  0  0  0  0
   27.9739    0.6203  -11.8890 O   0  0  0  0  0  0  0  0  0  0  0  0
   26.0366    1.8194  -12.5352 C   0  0  1  0  0  0  0  0  0  0  0  0
   25.7951    0.7596  -13.3773 F   0  0  0  0  0  0  0  0  0  0  0  0
   24.7188    2.1052  -11.7992 C   0  0  0  0  0  0  0  0  0  0  0  0
  1  2  1  1
  2  3  2  0
  2  4  2  0
  2  5  1  6
  5  6  2  0
  6  7  1  0
  7  8  2  0
  8  9  1  0
  9 10  1  0
 10 11  2  0
 11 12  1  0
 12 13  1  0
 12 14  2  0
 14 15  1  0
 15 16  1  0
 16 17  3  0
 15 18  2  0
  8 19  1  0
 19 20  2  0
 20 21  1  0
 21 22  1  6
 21 23  1  0
 23 24  1  6
 23 25  1  0
 20  5  1  0
 18 10  1  0
 25 19  1  1
M  END
$$$$
