_rank10
     RDKit          3D

 25 27  0  0  0  0  0  0  0  0999 V2000
   28.3959   -1.4908   -8.1519 C   0  0  0  0  0  0  0  0  0  0  0  0
   27.4466   -0.0135   -8.3863 S   0  0  1  0  0  6  0  0  0  0  0  0
   27.0813    0.6688   -7.1208 O   0  0  0  0  0  0  0  0  0  0  0  0
   28.3653    0.9492   -9.1351 O   0  0  0  0  0  0  0  0  0  0  0  0
   26.0390   -0.2755   -9.4017 C   0  0  0  0  0  0  0  0  0  0  0  0
   24.9579   -1.0008   -8.9496 C   0  0  0  0  0  0  0  0  0  0  0  0
   23.8572   -1.1839   -9.7430 C   0  0  0  0  0  0  0  0  0  0  0  0
   23.8384   -0.6248  -11.0262 C   0  0  0  0  0  0  0  0  0  0  0  0
   22.6876   -0.8562  -11.7587 O   0  0  0  0  0  0  0  0  0  0  0  0
   21.4481   -1.0049  -11.1949 C   0  0  0  0  0  0  0  0  0  0  0  0
   20.7033   -2.1563  -11.2686 C   0  0  0  0  0  0  0  0  0  0  0  0
   19.4567   -2.2057  -10.6659 C   0  0  0  0  0  0  0  0  0  0  0  0
   18.7269   -3.3592  -10.7505 F   0  0  0  0  0  0  0  0  0  0  0  0
   18.9348   -1.1212   -9.9852 C   0  0  0  0  0  0  0  0  0  0  0  0
   19.6749    0.0583   -9.8977 C   0  0  0  0  0  0  0  0  0  0  0  0
   19.1129    1.1609   -9.1848 C   0  0  0  0  0  0  0  0  0  0  0  0
   18.6638    2.0768   -8.5820 N   0  0  0  0  0  0  0  0  0  0  0  0
   20.8946    0.0765  -10.4995 C   0  0  0  0  0  0  0  0  0  0  0  0
   24.8996    0.0987  -11.4997 C   0  0  0  0  0  0  0  0  0  0  0  0
   26.0122    0.2689  -10.6633 C   0  0  0  0  0  0  0  0  0  0  0  0
   27.0237    1.0858  -11.4096 C   0  0  1  0  0  0  0  0  0  0  0  0
   28.3252    0.6686  -11.1206 O   0  0  0  0  0  0  0  0  0  0  0  0
   26.6946    0.7169  -12.8373 C   0  0  1  0  0  0  0  0  0  0  0  0
   27.0306   -0.6005  -13.0428 F   0  0  0  0  0  0  0  0  0  0  0  0
   25.1603    0.7767  -12.7880 C   0  0  0  0  0  0  0  0  0  0  0  0
  1  2  1  1
  2  3  2  0
  2  4  2  0
  2  5  1  6
  5  6  2  0
  6  7  1  0
  7  8  2  0
  8  9  1  0
  9 10  1  0
 10 11  2  0
 11 12  1  0
 12 13  1  0
 12 14  2  0
 14 15  1  0
 15 16  1  0
 16 17  3  0
 15 18  2  0
  8 19  1  0
 19 20  2  0
 20 21  1  0
 21 22  1  1
 21 23  1  0
 23 24  1  1
 23 25  1  0
 20  5  1  0
 18 10  1  0
 25 19  1  1
M  END
$$$$
