_rank11
     RDKit          3D

 25 27  0  0  0  0  0  0  0  0999 V2000
   27.9530    1.3028   -8.6015 C   0  0  0  0  0  0  0  0  0  0  0  0
   27.3567   -0.3505   -8.8237 S   0  0  1  0  0  6  0  0  0  0  0  0
   28.3731   -1.2839   -9.3676 O   0  0  0  0  0  0  0  0  0  0  0  0
   27.0243   -0.8578   -7.4224 O   0  0  0  0  0  0  0  0  0  0  0  0
   25.8710   -0.4073   -9.7568 C   0  0  0  0  0  0  0  0  0  0  0  0
   24.7446   -1.0329   -9.2678 C   0  0  0  0  0  0  0  0  0  0  0  0
   23.5854   -1.0557   -9.9957 C   0  0  0  0  0  0  0  0  0  0  0  0
   23.5529   -0.4344  -11.2497 C   0  0  0  0  0  0  0  0  0  0  0  0
   22.3421   -0.5029  -11.9159 O   0  0  0  0  0  0  0  0  0  0  0  0
   21.1278   -0.5042  -11.2818 C   0  0  0  0  0  0  0  0  0  0  0  0
   20.5945    0.5867  -10.6406 C   0  0  0  0  0  0  0  0  0  0  0  0
   19.3573    0.4828  -10.0254 C   0  0  0  0  0  0  0  0  0  0  0  0
   18.8413    1.5780   -9.3894 F   0  0  0  0  0  0  0  0  0  0  0  0
   18.6359   -0.6968  -10.0381 C   0  0  0  0  0  0  0  0  0  0  0  0
   19.1590   -1.8172  -10.6843 C   0  0  0  0  0  0  0  0  0  0  0  0
   18.3901   -3.0208  -10.6852 C   0  0  0  0  0  0  0  0  0  0  0  0
   17.7466   -4.0155  -10.7053 N   0  0  0  0  0  0  0  0  0  0  0  0
   20.3753   -1.6845  -11.2786 C   0  0  0  0  0  0  0  0  0  0  0  0
   24.6580    0.1926  -11.7589 C   0  0  0  0  0  0  0  0  0  0  0  0
   25.8302    0.1992  -10.9893 C   0  0  0  0  0  0  0  0  0  0  0  0
   26.8803    0.9380  -11.7632 C   0  0  1  0  0  0  0  0  0  0  0  0
   28.1421    0.3683  -11.5769 O   0  0  0  0  0  0  0  0  0  0  0  0
   26.4282    0.6788  -13.1814 C   0  0  1  0  0  0  0  0  0  0  0  0
   26.6027   -0.6553  -13.4647 F   0  0  0  0  0  0  0  0  0  0  0  0
   24.9156    0.9019  -13.0308 C   0  0  0  0  0  0  0  0  0  0  0  0
  1  2  1  1
  2  3  2  0
  2  4  2  0
  2  5  1  6
  5  6  2  0
  6  7  1  0
  7  8  2  0
  8  9  1  0
  9 10  1  0
 10 11  2  0
 11 12  1  0
 12 13  1  0
 12 14  2  0
 14 15  1  0
 15 16  1  0
 16 17  3  0
 15 18  2  0
  8 19  1  0
 19 20  2  0
 20 21  1  0
 21 22  1  6
 21 23  1  0
 23 24  1  1
 23 25  1  0
 20  5  1  0
 18 10  1  0
 25 19  1  1
M  END
$$$$
