_rank13
     RDKit          3D

 25 27  0  0  0  0  0  0  0  0999 V2000
   28.7067   -1.4638   -8.9695 C   0  0  0  0  0  0  0  0  0  0  0  0
   27.5899   -0.1046   -8.7604 S   0  0  1  0  0  6  0  0  0  0  0  0
   27.2331    0.1631   -7.3457 O   0  0  0  0  0  0  0  0  0  0  0  0
   28.3498    1.1281   -9.2447 O   0  0  0  0  0  0  0  0  0  0  0  0
   26.1580   -0.2532   -9.7647 C   0  0  0  0  0  0  0  0  0  0  0  0
   25.0404   -0.9254   -9.3192 C   0  0  0  0  0  0  0  0  0  0  0  0
   23.9220   -1.0199  -10.1031 C   0  0  0  0  0  0  0  0  0  0  0  0
   23.9225   -0.4243  -11.3700 C   0  0  0  0  0  0  0  0  0  0  0  0
   22.7519   -0.5658  -12.0939 O   0  0  0  0  0  0  0  0  0  0  0  0
   21.5254   -0.7684  -11.5184 C   0  0  0  0  0  0  0  0  0  0  0  0
   20.8198   -1.9432  -11.6064 C   0  0  0  0  0  0  0  0  0  0  0  0
   19.5833   -2.0476  -10.9900 C   0  0  0  0  0  0  0  0  0  0  0  0
   18.8925   -3.2237  -11.0890 F   0  0  0  0  0  0  0  0  0  0  0  0
   19.0330   -0.9954  -10.2814 C   0  0  0  0  0  0  0  0  0  0  0  0
   19.7332    0.2071  -10.1790 C   0  0  0  0  0  0  0  0  0  0  0  0
   19.1427    1.2753   -9.4374 C   0  0  0  0  0  0  0  0  0  0  0  0
   18.6668    2.1587   -8.8073 N   0  0  0  0  0  0  0  0  0  0  0  0
   20.9439    0.2793  -10.7949 C   0  0  0  0  0  0  0  0  0  0  0  0
   25.0198    0.2479  -11.8367 C   0  0  0  0  0  0  0  0  0  0  0  0
   26.1498    0.3276  -11.0102 C   0  0  0  0  0  0  0  0  0  0  0  0
   27.2000    1.1038  -11.7463 C   0  0  1  0  0  0  0  0  0  0  0  0
   28.4774    0.6018  -11.4857 O   0  0  0  0  0  0  0  0  0  0  0  0
   26.8337    0.7960  -13.1794 C   0  0  1  0  0  0  0  0  0  0  0  0
   27.0878   -0.5326  -13.4257 F   0  0  0  0  0  0  0  0  0  0  0  0
   25.3063    0.9456  -13.1088 C   0  0  0  0  0  0  0  0  0  0  0  0
  1  2  1  1
  2  3  2  0
  2  4  2  0
  2  5  1  6
  5  6  2  0
  6  7  1  0
  7  8  2  0
  8  9  1  0
  9 10  1  0
 10 11  2  0
 11 12  1  0
 12 13  1  0
 12 14  2  0
 14 15  1  0
 15 16  1  0
 16 17  3  0
 15 18  2  0
  8 19  1  0
 19 20  2  0
 20 21  1  0
 21 22  1  1
 21 23  1  0
 23 24  1  1
 23 25  1  0
 20  5  1  0
 18 10  1  0
 25 19  1  1
M  END
$$$$
