_rank18
     RDKit          3D

 23 25  0  0  0  0  0  0  0  0999 V2000
   25.0550    0.5863  -12.8853 O   0  0  0  0  0  0  0  0  0  0  0  0
   25.8830    0.6421  -11.9327 N   0  0  0  0  0  4  0  0  0  0  0  0
   26.9627    1.4461  -12.0647 O   0  0  0  0  0  1  0  0  0  0  0  0
   25.7126   -0.1105  -10.7346 C   0  0  0  0  0  0  0  0  0  0  0  0
   24.4711   -0.6306  -10.4593 C   0  0  0  0  0  0  0  0  0  0  0  0
   23.3305   -0.4753  -11.2716 N   0  0  0  0  0  0  0  0  0  0  0  0
   22.0050   -0.7802  -10.9316 C   0  0  0  0  0  0  0  0  0  0  0  0
   21.6979   -2.0413  -10.4292 C   0  0  0  0  0  0  0  0  0  0  0  0
   20.4015   -2.4007  -10.0899 C   0  0  0  0  0  0  0  0  0  0  0  0
   19.3747   -1.4876  -10.2512 C   0  0  0  0  0  0  0  0  0  0  0  0
   19.6509   -0.2337  -10.7459 C   0  0  0  0  0  0  0  0  0  0  0  0
   18.5146    0.7157  -10.9046 C   0  0  1  0  0  0  0  0  0  0  0  0
   18.7034    1.4088  -12.0815 F   0  0  0  0  0  0  0  0  0  0  0  0
   17.3188    0.0620  -10.9269 F   0  0  0  0  0  0  0  0  0  0  0  0
   18.6274    1.6184   -9.8620 F   0  0  0  0  0  0  0  0  0  0  0  0
   20.9595    0.1092  -11.0811 C   0  0  0  0  0  0  0  0  0  0  0  0
   24.3491   -1.3424   -9.2754 C   0  0  0  0  0  0  0  0  0  0  0  0
   25.3889   -1.5329   -8.4102 C   0  0  0  0  0  0  0  0  0  0  0  0
   26.6086   -0.9968   -8.7246 C   0  0  0  0  0  0  0  0  0  0  0  0
   27.8044   -0.9869   -8.1264 N   0  0  0  0  0  0  0  0  0  0  0  0
   28.6287   -0.3196   -8.8702 O   0  0  0  0  0  0  0  0  0  0  0  0
   28.0568    0.1246   -9.9427 N   0  0  0  0  0  0  0  0  0  0  0  0
   26.7951   -0.2750   -9.8934 C   0  0  0  0  0  0  0  0  0  0  0  0
  1  2  2  0
  2  3  1  0
  2  4  1  0
  4  5  2  0
  5  6  1  0
  6  7  1  0
  7  8  2  0
  8  9  1  0
  9 10  2  0
 10 11  1  0
 11 12  1  0
 12 13  1  6
 12 14  1  0
 12 15  1  0
 11 16  2  0
  5 17  1  0
 17 18  2  0
 18 19  1  0
 19 20  2  0
 20 21  1  0
 21 22  1  0
 22 23  2  0
 23  4  1  0
 16  7  1  0
 23 19  1  0
M  CHG  2   2   1   3  -1
M  END
$$$$
