_rank15
     RDKit          3D

 23 25  0  0  0  0  0  0  0  0999 V2000
   25.3386    0.6256  -12.6564 O   0  0  0  0  0  0  0  0  0  0  0  0
   26.1417    0.0565  -11.8643 N   0  0  0  0  0  4  0  0  0  0  0  0
   27.3017   -0.4288  -12.3629 O   0  0  0  0  0  1  0  0  0  0  0  0
   25.8627   -0.0864  -10.4742 C   0  0  0  0  0  0  0  0  0  0  0  0
   24.5615   -0.2956  -10.0858 C   0  0  0  0  0  0  0  0  0  0  0  0
   23.4593   -0.3760  -10.9597 N   0  0  0  0  0  0  0  0  0  0  0  0
   22.1405   -0.7138  -10.6250 C   0  0  0  0  0  0  0  0  0  0  0  0
   21.8682   -1.9692  -10.0893 C   0  0  0  0  0  0  0  0  0  0  0  0
   20.5802   -2.3605   -9.7534 C   0  0  0  0  0  0  0  0  0  0  0  0
   19.5265   -1.4861   -9.9520 C   0  0  0  0  0  0  0  0  0  0  0  0
   19.7680   -0.2387  -10.4801 C   0  0  0  0  0  0  0  0  0  0  0  0
   18.6038    0.6684  -10.6783 C   0  0  1  0  0  0  0  0  0  0  0  0
   18.4068    1.3667   -9.5057 F   0  0  0  0  0  0  0  0  0  0  0  0
   18.8145    1.5305  -11.7128 F   0  0  0  0  0  0  0  0  0  0  0  0
   17.5089   -0.1566  -10.8657 F   0  0  0  0  0  0  0  0  0  0  0  0
   21.0687    0.1366  -10.8113 C   0  0  0  0  0  0  0  0  0  0  0  0
   24.3359   -0.4135   -8.7227 C   0  0  0  0  0  0  0  0  0  0  0  0
   25.3330   -0.3306   -7.7927 C   0  0  0  0  0  0  0  0  0  0  0  0
   26.6151   -0.1214   -8.2244 C   0  0  0  0  0  0  0  0  0  0  0  0
   27.7956    0.0093   -7.6105 N   0  0  0  0  0  0  0  0  0  0  0  0
   28.7072    0.1968   -8.5115 O   0  0  0  0  0  0  0  0  0  0  0  0
   28.2090    0.2002   -9.7059 N   0  0  0  0  0  0  0  0  0  0  0  0
   26.9058    0.0046   -9.5741 C   0  0  0  0  0  0  0  0  0  0  0  0
  1  2  2  0
  2  3  1  0
  2  4  1  0
  4  5  2  0
  5  6  1  0
  6  7  1  0
  7  8  2  0
  8  9  1  0
  9 10  2  0
 10 11  1  0
 11 12  1  0
 12 13  1  1
 12 14  1  0
 12 15  1  0
 11 16  2  0
  5 17  1  0
 17 18  2  0
 18 19  1  0
 19 20  2  0
 20 21  1  0
 21 22  1  0
 22 23  2  0
 23  4  1  0
 16  7  1  0
 23 19  1  0
M  CHG  2   2   1   3  -1
M  END
$$$$
