_rank4
     RDKit          3D

 23 25  0  0  0  0  0  0  0  0999 V2000
   25.5661   -0.1969  -13.1381 O   0  0  0  0  0  0  0  0  0  0  0  0
   26.2637    0.2118  -12.1673 N   0  0  0  0  0  4  0  0  0  0  0  0
   27.4084    0.8812  -12.4343 O   0  0  0  0  0  1  0  0  0  0  0  0
   25.8820   -0.0101  -10.8124 C   0  0  0  0  0  0  0  0  0  0  0  0
   24.5855   -0.3815  -10.5501 C   0  0  0  0  0  0  0  0  0  0  0  0
   23.5820   -0.5588  -11.5230 N   0  0  0  0  0  0  0  0  0  0  0  0
   22.2188   -0.7942  -11.2954 C   0  0  0  0  0  0  0  0  0  0  0  0
   21.6538   -2.0005  -11.6990 C   0  0  0  0  0  0  0  0  0  0  0  0
   20.3079   -2.2800  -11.5111 C   0  0  0  0  0  0  0  0  0  0  0  0
   19.4926   -1.3402  -10.9061 C   0  0  0  0  0  0  0  0  0  0  0  0
   20.0257   -0.1393  -10.4975 C   0  0  0  0  0  0  0  0  0  0  0  0
   19.1108    0.8429   -9.8528 C   0  0  1  0  0  0  0  0  0  0  0  0
   18.2264    0.1412   -9.0611 F   0  0  0  0  0  0  0  0  0  0  0  0
   19.8005    1.7488   -9.1036 F   0  0  0  0  0  0  0  0  0  0  0  0
   18.3879    1.4189  -10.8824 F   0  0  0  0  0  0  0  0  0  0  0  0
   21.3801    0.1234  -10.6946 C   0  0  0  0  0  0  0  0  0  0  0  0
   24.2559   -0.5714   -9.2165 C   0  0  0  0  0  0  0  0  0  0  0  0
   25.1502   -0.4059   -8.1973 C   0  0  0  0  0  0  0  0  0  0  0  0
   26.4317   -0.0351   -8.5046 C   0  0  0  0  0  0  0  0  0  0  0  0
   27.5296    0.2100   -7.7821 N   0  0  0  0  0  0  0  0  0  0  0  0
   28.4886    0.5325   -8.5910 O   0  0  0  0  0  0  0  0  0  0  0  0
   28.1009    0.5193   -9.8256 N   0  0  0  0  0  0  0  0  0  0  0  0
   26.8234    0.1699   -9.8185 C   0  0  0  0  0  0  0  0  0  0  0  0
  1  2  2  0
  2  3  1  0
  2  4  1  0
  4  5  2  0
  5  6  1  0
  6  7  1  0
  7  8  2  0
  8  9  1  0
  9 10  2  0
 10 11  1  0
 11 12  1  0
 12 13  1  1
 12 14  1  0
 12 15  1  0
 11 16  2  0
  5 17  1  0
 17 18  2  0
 18 19  1  0
 19 20  2  0
 20 21  1  0
 21 22  1  0
 22 23  2  0
 23  4  1  0
 16  7  1  0
 23 19  1  0
M  CHG  2   2   1   3  -1
M  END
$$$$
