_rank19
     RDKit          3D

 23 25  0  0  0  0  0  0  0  0999 V2000
   26.9030    1.4712  -12.3212 O   0  0  0  0  0  0  0  0  0  0  0  0
   26.0386    0.6079  -11.9991 N   0  0  0  0  0  4  0  0  0  0  0  0
   25.2604    0.0820  -12.9725 O   0  0  0  0  0  1  0  0  0  0  0  0
   25.8627    0.1767  -10.6523 C   0  0  0  0  0  0  0  0  0  0  0  0
   24.5844   -0.0294  -10.1926 C   0  0  0  0  0  0  0  0  0  0  0  0
   23.4118    0.1585  -10.9507 N   0  0  0  0  0  0  0  0  0  0  0  0
   22.1513   -0.4052  -10.7082 C   0  0  0  0  0  0  0  0  0  0  0  0
   22.0283   -1.4413   -9.7871 C   0  0  0  0  0  0  0  0  0  0  0  0
   20.8079   -2.0444   -9.5191 C   0  0  0  0  0  0  0  0  0  0  0  0
   19.6722   -1.6124  -10.1804 C   0  0  0  0  0  0  0  0  0  0  0  0
   19.7658   -0.5896  -11.0961 C   0  0  0  0  0  0  0  0  0  0  0  0
   18.5180   -0.1586  -11.7853 C   0  0  1  0  0  0  0  0  0  0  0  0
   17.5996    0.1916  -10.8182 F   0  0  0  0  0  0  0  0  0  0  0  0
   18.7487    0.8927  -12.6216 F   0  0  0  0  0  0  0  0  0  0  0  0
   18.0374   -1.2817  -12.4350 F   0  0  0  0  0  0  0  0  0  0  0  0
   21.0004    0.0041  -11.3520 C   0  0  0  0  0  0  0  0  0  0  0  0
   24.4614   -0.4337   -8.8718 C   0  0  0  0  0  0  0  0  0  0  0  0
   25.5344   -0.6251   -8.0484 C   0  0  0  0  0  0  0  0  0  0  0  0
   26.7902   -0.4080   -8.5483 C   0  0  0  0  0  0  0  0  0  0  0  0
   28.0236   -0.4941   -8.0395 N   0  0  0  0  0  0  0  0  0  0  0  0
   28.8713   -0.1695   -8.9636 O   0  0  0  0  0  0  0  0  0  0  0  0
   28.2796    0.1325  -10.0741 N   0  0  0  0  0  0  0  0  0  0  0  0
   26.9795   -0.0030   -9.8606 C   0  0  0  0  0  0  0  0  0  0  0  0
  1  2  2  0
  2  3  1  0
  2  4  1  0
  4  5  2  0
  5  6  1  0
  6  7  1  0
  7  8  2  0
  8  9  1  0
  9 10  2  0
 10 11  1  0
 11 12  1  0
 12 13  1  1
 12 14  1  0
 12 15  1  0
 11 16  2  0
  5 17  1  0
 17 18  2  0
 18 19  1  0
 19 20  2  0
 20 21  1  0
 21 22  1  0
 22 23  2  0
 23  4  1  0
 16  7  1  0
 23 19  1  0
M  CHG  2   2   1   3  -1
M  END
$$$$
