_rank13
     RDKit          3D

 23 25  0  0  0  0  0  0  0  0999 V2000
   27.2540    0.5627  -12.5250 O   0  0  0  0  0  0  0  0  0  0  0  0
   26.0884    0.5202  -12.0393 N   0  0  0  0  0  4  0  0  0  0  0  0
   25.0424    0.7956  -12.8515 O   0  0  0  0  0  1  0  0  0  0  0  0
   25.8473    0.1930  -10.6735 C   0  0  0  0  0  0  0  0  0  0  0  0
   24.5460    0.0998  -10.2425 C   0  0  0  0  0  0  0  0  0  0  0  0
   23.4098    0.3101  -11.0485 N   0  0  0  0  0  0  0  0  0  0  0  0
   22.1375   -0.2529  -10.8761 C   0  0  0  0  0  0  0  0  0  0  0  0
   22.0037   -1.6361  -10.7986 C   0  0  0  0  0  0  0  0  0  0  0  0
   20.7676   -2.2465  -10.6424 C   0  0  0  0  0  0  0  0  0  0  0  0
   19.6266   -1.4685  -10.5600 C   0  0  0  0  0  0  0  0  0  0  0  0
   19.7307   -0.0985  -10.6338 C   0  0  0  0  0  0  0  0  0  0  0  0
   18.4763    0.6989  -10.5425 C   0  0  1  0  0  0  0  0  0  0  0  0
   17.8379    0.6247  -11.7625 F   0  0  0  0  0  0  0  0  0  0  0  0
   17.6618    0.2346   -9.5532 F   0  0  0  0  0  0  0  0  0  0  0  0
   18.8747    2.0106  -10.3552 F   0  0  0  0  0  0  0  0  0  0  0  0
   20.9811    0.4967  -10.7907 C   0  0  0  0  0  0  0  0  0  0  0  0
   24.3602   -0.2056   -8.9027 C   0  0  0  0  0  0  0  0  0  0  0  0
   25.3951   -0.4086   -8.0344 C   0  0  0  0  0  0  0  0  0  0  0  0
   26.6758   -0.3059   -8.5070 C   0  0  0  0  0  0  0  0  0  0  0  0
   27.8863   -0.4354   -7.9544 N   0  0  0  0  0  0  0  0  0  0  0  0
   28.7788   -0.2284   -8.8701 O   0  0  0  0  0  0  0  0  0  0  0  0
   28.2392    0.0348  -10.0165 N   0  0  0  0  0  0  0  0  0  0  0  0
   26.9276   -0.0033   -9.8363 C   0  0  0  0  0  0  0  0  0  0  0  0
  1  2  2  0
  2  3  1  0
  2  4  1  0
  4  5  2  0
  5  6  1  0
  6  7  1  0
  7  8  2  0
  8  9  1  0
  9 10  2  0
 10 11  1  0
 11 12  1  0
 12 13  1  6
 12 14  1  0
 12 15  1  0
 11 16  2  0
  5 17  1  0
 17 18  2  0
 18 19  1  0
 19 20  2  0
 20 21  1  0
 21 22  1  0
 22 23  2  0
 23  4  1  0
 16  7  1  0
 23 19  1  0
M  CHG  2   2   1   3  -1
M  END
$$$$
