_rank10
     RDKit          3D

 23 25  0  0  0  0  0  0  0  0999 V2000
   25.1608    0.7966  -12.7218 O   0  0  0  0  0  0  0  0  0  0  0  0
   26.0305    0.4369  -11.8789 N   0  0  0  0  0  4  0  0  0  0  0  0
   27.3092    0.2922  -12.2955 O   0  0  0  0  0  1  0  0  0  0  0  0
   25.7053    0.1825  -10.5150 C   0  0  0  0  0  0  0  0  0  0  0  0
   24.3863    0.2407  -10.1347 C   0  0  0  0  0  0  0  0  0  0  0  0
   23.3096    0.5418  -10.9921 N   0  0  0  0  0  0  0  0  0  0  0  0
   21.9512    0.2808  -10.7637 C   0  0  0  0  0  0  0  0  0  0  0  0
   21.1246    1.3004  -10.3009 C   0  0  0  0  0  0  0  0  0  0  0  0
   19.7767    1.0937  -10.0451 C   0  0  0  0  0  0  0  0  0  0  0  0
   19.2259   -0.1584  -10.2521 C   0  0  0  0  0  0  0  0  0  0  0  0
   20.0208   -1.1842  -10.7094 C   0  0  0  0  0  0  0  0  0  0  0  0
   19.3859   -2.5152  -10.9160 C   0  0  1  0  0  0  0  0  0  0  0  0
   18.5184   -2.7378   -9.8676 F   0  0  0  0  0  0  0  0  0  0  0  0
   18.7179   -2.5696  -12.1028 F   0  0  0  0  0  0  0  0  0  0  0  0
   20.4092   -3.4416  -10.8192 F   0  0  0  0  0  0  0  0  0  0  0  0
   21.3727   -0.9574  -10.9609 C   0  0  0  0  0  0  0  0  0  0  0  0
   24.1193    0.0013   -8.7952 C   0  0  0  0  0  0  0  0  0  0  0  0
   25.0938   -0.2798   -7.8800 C   0  0  0  0  0  0  0  0  0  0  0  0
   26.3948   -0.3276   -8.3030 C   0  0  0  0  0  0  0  0  0  0  0  0
   27.5633   -0.5647   -7.6980 N   0  0  0  0  0  0  0  0  0  0  0  0
   28.5062   -0.4830   -8.5824 O   0  0  0  0  0  0  0  0  0  0  0  0
   28.0407   -0.2032   -9.7570 N   0  0  0  0  0  0  0  0  0  0  0  0
   26.7267   -0.0977   -9.6292 C   0  0  0  0  0  0  0  0  0  0  0  0
  1  2  2  0
  2  3  1  0
  2  4  1  0
  4  5  2  0
  5  6  1  0
  6  7  1  0
  7  8  2  0
  8  9  1  0
  9 10  2  0
 10 11  1  0
 11 12  1  0
 12 13  1  1
 12 14  1  0
 12 15  1  0
 11 16  2  0
  5 17  1  0
 17 18  2  0
 18 19  1  0
 19 20  2  0
 20 21  1  0
 21 22  1  0
 22 23  2  0
 23  4  1  0
 16  7  1  0
 23 19  1  0
M  CHG  2   2   1   3  -1
M  END
$$$$
