_rank7
     RDKit          3D

 19 20  0  0  0  0  0  0  0  0999 V2000
   20.0616    2.6064   -9.4452 C   0  0  0  0  0  0  0  0  0  0  0  0
   19.0600    1.4908   -9.6026 C   0  0  0  0  0  0  0  0  0  0  0  0
   19.7004    0.2893  -10.3183 C   0  0  2  0  0  0  0  0  0  0  0  0
   19.1093   -0.9358   -9.7606 C   0  0  0  0  0  0  0  0  0  0  0  0
   20.0103   -2.1010   -9.5813 C   0  0  0  0  0  0  0  0  0  0  0  0
   21.1585   -2.0667  -10.5528 C   0  0  1  0  0  0  0  0  0  0  0  0
   20.7635   -2.1453  -11.9142 N   0  0  0  0  0  0  0  0  0  0  0  0
   21.9620   -0.8313  -10.2196 C   0  0  1  0  0  0  0  0  0  0  0  0
   23.0601   -0.8162  -11.0823 O   0  0  0  0  0  0  0  0  0  0  0  0
   24.3410   -0.4409  -10.8126 C   0  0  0  0  0  0  0  0  0  0  0  0
   25.0865    0.0222  -11.9069 C   0  0  0  0  0  0  0  0  0  0  0  0
   26.3775    0.4147  -11.7075 C   0  0  0  0  0  0  0  0  0  0  0  0
   27.1174    0.8682  -12.7624 F   0  0  0  0  0  0  0  0  0  0  0  0
   26.9679    0.3678  -10.4590 C   0  0  0  0  0  0  0  0  0  0  0  0
   26.2473   -0.0824   -9.3881 C   0  0  0  0  0  0  0  0  0  0  0  0
   26.8830   -0.1246   -8.0858 C   0  0  0  0  0  0  0  0  0  0  0  0
   27.3993   -0.1419   -7.0542 N   0  0  0  0  0  0  0  0  0  0  0  0
   24.9335   -0.4859   -9.5699 C   0  0  0  0  0  0  0  0  0  0  0  0
   21.1641    0.4319  -10.3160 C   0  0  0  0  0  0  0  0  0  0  0  0
  2  1  1  6
  3  2  1  1
  4  3  1  6
  5  4  1  6
  5  6  1  0
  6  7  1  6
  6  8  1  0
  8  9  1  6
  9 10  1  0
 10 11  2  0
 11 12  1  0
 12 13  1  0
 12 14  2  0
 14 15  1  0
 15 16  1  0
 16 17  3  0
 15 18  2  0
 19  8  1  6
 19  3  1  0
 18 10  1  0
M  END
$$$$
