_rank10
     RDKit          3D

 19 20  0  0  0  0  0  0  0  0999 V2000
   19.0667    1.5488   -8.5852 C   0  0  0  0  0  0  0  0  0  0  0  0
   19.8238    1.8049   -9.8633 C   0  0  0  0  0  0  0  0  0  0  0  0
   20.2625    0.4773  -10.5045 C   0  0  2  0  0  0  0  0  0  0  0  0
   19.3751   -0.5817  -10.0022 C   0  0  0  0  0  0  0  0  0  0  0  0
   19.9884   -1.9045   -9.7269 C   0  0  0  0  0  0  0  0  0  0  0  0
   21.2066   -2.1370  -10.5786 C   0  0  1  0  0  0  0  0  0  0  0  0
   20.9377   -2.1673  -11.9723 N   0  0  0  0  0  0  0  0  0  0  0  0
   22.2165   -1.0889  -10.1733 C   0  0  1  0  0  0  0  0  0  0  0  0
   23.3713   -1.3269  -10.9216 O   0  0  0  0  0  0  0  0  0  0  0  0
   24.6345   -0.8727  -10.6929 C   0  0  0  0  0  0  0  0  0  0  0  0
   25.4277   -0.6695  -11.8318 C   0  0  0  0  0  0  0  0  0  0  0  0
   26.7041   -0.2153  -11.6750 C   0  0  0  0  0  0  0  0  0  0  0  0
   27.4899   -0.0121  -12.7737 F   0  0  0  0  0  0  0  0  0  0  0  0
   27.2344    0.0490  -10.4266 C   0  0  0  0  0  0  0  0  0  0  0  0
   26.4671   -0.1467   -9.3122 C   0  0  0  0  0  0  0  0  0  0  0  0
   27.0399    0.1358   -8.0107 C   0  0  0  0  0  0  0  0  0  0  0  0
   27.5096    0.3467   -6.9782 N   0  0  0  0  0  0  0  0  0  0  0  0
   25.1670   -0.6080   -9.4504 C   0  0  0  0  0  0  0  0  0  0  0  0
   21.7161    0.3104  -10.3563 C   0  0  0  0  0  0  0  0  0  0  0  0
  2  1  1  6
  3  2  1  1
  4  3  1  6
  5  4  1  6
  5  6  1  0
  6  7  1  6
  6  8  1  0
  8  9  1  6
  9 10  1  0
 10 11  2  0
 11 12  1  0
 12 13  1  0
 12 14  2  0
 14 15  1  0
 15 16  1  0
 16 17  3  0
 15 18  2  0
 19  8  1  6
 19  3  1  0
 18 10  1  0
M  END
$$$$
