_rank18
     RDKit          3D

 19 20  0  0  0  0  0  0  0  0999 V2000
   27.6724   -0.2242   -9.2053 C   0  0  0  0  0  0  0  0  0  0  0  0
   27.1218   -1.6080   -9.4385 C   0  0  0  0  0  0  0  0  0  0  0  0
   25.9991   -1.5708  -10.4892 C   0  0  2  0  0  0  0  0  0  0  0  0
   26.5525   -0.9895  -11.7209 C   0  0  0  0  0  0  0  0  0  0  0  0
   25.6671   -0.0912  -12.5024 C   0  0  0  0  0  0  0  0  0  0  0  0
   24.2152   -0.4198  -12.2848 C   0  0  1  0  0  0  0  0  0  0  0  0
   23.8486   -1.7219  -12.7155 N   0  0  0  0  0  0  0  0  0  0  0  0
   23.9329   -0.1568  -10.8240 C   0  0  1  0  0  0  0  0  0  0  0  0
   22.5745   -0.4095  -10.6210 O   0  0  0  0  0  0  0  0  0  0  0  0
   21.7829    0.0040   -9.5931 C   0  0  0  0  0  0  0  0  0  0  0  0
   20.5447    0.5538   -9.9567 C   0  0  0  0  0  0  0  0  0  0  0  0
   19.7019    0.9884   -8.9764 C   0  0  0  0  0  0  0  0  0  0  0  0
   18.4924    1.5264   -9.3134 F   0  0  0  0  0  0  0  0  0  0  0  0
   20.0355    0.9012   -7.6382 C   0  0  0  0  0  0  0  0  0  0  0  0
   21.2406    0.3665   -7.2765 C   0  0  0  0  0  0  0  0  0  0  0  0
   21.5738    0.2830   -5.8681 C   0  0  0  0  0  0  0  0  0  0  0  0
   21.8377    0.1966   -4.7482 N   0  0  0  0  0  0  0  0  0  0  0  0
   22.1114   -0.0810   -8.2581 C   0  0  0  0  0  0  0  0  0  0  0  0
   24.7912   -0.9692   -9.9046 C   0  0  0  0  0  0  0  0  0  0  0  0
  2  1  1  6
  3  2  1  1
  4  3  1  6
  5  4  1  6
  5  6  1  0
  6  7  1  1
  6  8  1  0
  8  9  1  6
  9 10  1  0
 10 11  2  0
 11 12  1  0
 12 13  1  0
 12 14  2  0
 14 15  1  0
 15 16  1  0
 16 17  3  0
 15 18  2  0
 19  8  1  6
 19  3  1  0
 18 10  1  0
M  END
$$$$
