_rank13
     RDKit          3D

 19 20  0  0  0  0  0  0  0  0999 V2000
   19.2483    1.1236   -8.8357 C   0  0  0  0  0  0  0  0  0  0  0  0
   18.9496   -0.3173   -9.1629 C   0  0  0  0  0  0  0  0  0  0  0  0
   19.8489   -0.8063  -10.3110 C   0  0  2  0  0  0  0  0  0  0  0  0
   19.5511   -2.2270  -10.5440 C   0  0  0  0  0  0  0  0  0  0  0  0
   20.6936   -3.1111  -10.8828 C   0  0  0  0  0  0  0  0  0  0  0  0
   21.8062   -2.3467  -11.5469 C   0  0  1  0  0  0  0  0  0  0  0  0
   21.4431   -1.7646  -12.7898 N   0  0  0  0  0  0  0  0  0  0  0  0
   22.3061   -1.3499  -10.5276 C   0  0  1  0  0  0  0  0  0  0  0  0
   23.3741   -0.6687  -11.1156 O   0  0  0  0  0  0  0  0  0  0  0  0
   24.6823   -0.6621  -10.7378 C   0  0  0  0  0  0  0  0  0  0  0  0
   25.5995   -1.1119  -11.6991 C   0  0  0  0  0  0  0  0  0  0  0  0
   26.9270   -1.1315  -11.3868 C   0  0  0  0  0  0  0  0  0  0  0  0
   27.8334   -1.5666  -12.3114 F   0  0  0  0  0  0  0  0  0  0  0  0
   27.3902   -0.7207  -10.1513 C   0  0  0  0  0  0  0  0  0  0  0  0
   26.5021   -0.2811   -9.2096 C   0  0  0  0  0  0  0  0  0  0  0  0
   27.0059    0.1458   -7.9190 C   0  0  0  0  0  0  0  0  0  0  0  0
   27.4180    0.4994   -6.9010 N   0  0  0  0  0  0  0  0  0  0  0  0
   25.1483   -0.2536   -9.5076 C   0  0  0  0  0  0  0  0  0  0  0  0
   21.2415   -0.4090  -10.0552 C   0  0  0  0  0  0  0  0  0  0  0  0
  2  1  1  6
  3  2  1  1
  4  3  1  6
  5  4  1  6
  5  6  1  0
  6  7  1  6
  6  8  1  0
  8  9  1  6
  9 10  1  0
 10 11  2  0
 11 12  1  0
 12 13  1  0
 12 14  2  0
 14 15  1  0
 15 16  1  0
 16 17  3  0
 15 18  2  0
 19  8  1  6
 19  3  1  0
 18 10  1  0
M  END
$$$$
