_rank16
     RDKit          3D

 19 20  0  0  0  0  0  0  0  0999 V2000
   19.8394   -3.8539   -8.6486 C   0  0  0  0  0  0  0  0  0  0  0  0
   21.0146   -3.5139   -9.5294 C   0  0  0  0  0  0  0  0  0  0  0  0
   21.0053   -2.0175   -9.8856 C   0  0  2  0  0  0  0  0  0  0  0  0
   19.7265   -1.7186  -10.5464 C   0  0  0  0  0  0  0  0  0  0  0  0
   19.7558   -0.7506  -11.6706 C   0  0  0  0  0  0  0  0  0  0  0  0
   20.9004    0.2166  -11.5377 C   0  0  1  0  0  0  0  0  0  0  0  0
   20.8302    1.0367  -10.3810 N   0  0  0  0  0  0  0  0  0  0  0  0
   22.1652   -0.6048  -11.6290 C   0  0  1  0  0  0  0  0  0  0  0  0
   23.2359    0.2890  -11.5584 O   0  0  0  0  0  0  0  0  0  0  0  0
   24.4989    0.0599  -11.1039 C   0  0  0  0  0  0  0  0  0  0  0  0
   25.4642   -0.2067  -12.0862 C   0  0  0  0  0  0  0  0  0  0  0  0
   26.7504   -0.4453  -11.7003 C   0  0  0  0  0  0  0  0  0  0  0  0
   27.7026   -0.7066  -12.6442 F   0  0  0  0  0  0  0  0  0  0  0  0
   27.1258   -0.4313  -10.3705 C   0  0  0  0  0  0  0  0  0  0  0  0
   26.1904   -0.1722   -9.4078 C   0  0  0  0  0  0  0  0  0  0  0  0
   26.6022   -0.1616   -8.0178 C   0  0  0  0  0  0  0  0  0  0  0  0
   26.9285   -0.1730   -6.9112 N   0  0  0  0  0  0  0  0  0  0  0  0
   24.8774    0.0729   -9.7796 C   0  0  0  0  0  0  0  0  0  0  0  0
   22.2559   -1.6627  -10.5733 C   0  0  0  0  0  0  0  0  0  0  0  0
  2  1  1  6
  3  2  1  6
  4  3  1  6
  5  4  1  6
  5  6  1  0
  6  7  1  1
  6  8  1  0
  8  9  1  1
  9 10  1  0
 10 11  2  0
 11 12  1  0
 12 13  1  0
 12 14  2  0
 14 15  1  0
 15 16  1  0
 16 17  3  0
 15 18  2  0
 19  8  1  6
 19  3  1  0
 18 10  1  0
M  END
$$$$
