_rank2
     RDKit          3D

 19 20  0  0  0  0  0  0  0  0999 V2000
   27.4073   -1.1175   -8.0422 C   0  0  0  0  0  0  0  0  0  0  0  0
   27.5349   -1.7918   -9.3844 C   0  0  0  0  0  0  0  0  0  0  0  0
   26.8870   -0.9318  -10.4828 C   0  0  2  0  0  0  0  0  0  0  0  0
   27.5807    0.3641  -10.5096 C   0  0  0  0  0  0  0  0  0  0  0  0
   26.7528    1.5697  -10.7603 C   0  0  0  0  0  0  0  0  0  0  0  0
   25.5210    1.2384  -11.5579 C   0  0  1  0  0  0  0  0  0  0  0  0
   25.7941    0.7340  -12.8566 N   0  0  0  0  0  0  0  0  0  0  0  0
   24.6963    0.3066  -10.7010 C   0  0  1  0  0  0  0  0  0  0  0  0
   23.5249    0.0325  -11.4104 O   0  0  0  0  0  0  0  0  0  0  0  0
   22.2814   -0.2263  -10.9198 C   0  0  0  0  0  0  0  0  0  0  0  0
   21.9660   -1.5805  -10.7340 C   0  0  0  0  0  0  0  0  0  0  0  0
   20.7363   -1.9110  -10.2453 C   0  0  0  0  0  0  0  0  0  0  0  0
   20.4133   -3.2250  -10.0585 F   0  0  0  0  0  0  0  0  0  0  0  0
   19.7960   -0.9489   -9.9295 C   0  0  0  0  0  0  0  0  0  0  0  0
   20.0964    0.3727  -10.1079 C   0  0  0  0  0  0  0  0  0  0  0  0
   19.0977    1.3682   -9.7712 C   0  0  0  0  0  0  0  0  0  0  0  0
   18.2922    2.1464   -9.4943 N   0  0  0  0  0  0  0  0  0  0  0  0
   21.3411    0.7294  -10.6036 C   0  0  0  0  0  0  0  0  0  0  0  0
   25.4246   -0.9474  -10.3282 C   0  0  0  0  0  0  0  0  0  0  0  0
  2  1  1  6
  3  2  1  1
  4  3  1  6
  5  4  1  6
  5  6  1  0
  6  7  1  6
  6  8  1  0
  8  9  1  6
  9 10  1  0
 10 11  2  0
 11 12  1  0
 12 13  1  0
 12 14  2  0
 14 15  1  0
 15 16  1  0
 16 17  3  0
 15 18  2  0
 19  8  1  6
 19  3  1  0
 18 10  1  0
M  END
$$$$
