_rank9
     RDKit          3D

 19 20  0  0  0  0  0  0  0  0999 V2000
   19.0079    2.2868   -9.7374 C   0  0  0  0  0  0  0  0  0  0  0  0
   19.2025    0.8867   -9.2138 C   0  0  0  0  0  0  0  0  0  0  0  0
   19.8459   -0.0057  -10.2889 C   0  0  2  0  0  0  0  0  0  0  0  0
   19.2312   -1.3380  -10.1969 C   0  0  0  0  0  0  0  0  0  0  0  0
   20.1168   -2.5083  -10.4150 C   0  0  0  0  0  0  0  0  0  0  0  0
   21.2853   -2.1607  -11.2965 C   0  0  1  0  0  0  0  0  0  0  0  0
   20.9181   -1.7596  -12.6080 N   0  0  0  0  0  0  0  0  0  0  0  0
   22.0938   -1.1289  -10.5453 C   0  0  1  0  0  0  0  0  0  0  0  0
   23.2098   -0.8360  -11.3321 O   0  0  0  0  0  0  0  0  0  0  0  0
   24.4837   -0.5758  -10.9275 C   0  0  0  0  0  0  0  0  0  0  0  0
   24.7330   -0.7261   -9.5553 C   0  0  0  0  0  0  0  0  0  0  0  0
   25.9884   -0.4814   -9.0816 C   0  0  0  0  0  0  0  0  0  0  0  0
   26.2480   -0.6230   -7.7481 F   0  0  0  0  0  0  0  0  0  0  0  0
   27.0179   -0.0903   -9.9165 C   0  0  0  0  0  0  0  0  0  0  0  0
   26.7821    0.0581  -11.2548 C   0  0  0  0  0  0  0  0  0  0  0  0
   27.8740    0.4690  -12.1155 C   0  0  0  0  0  0  0  0  0  0  0  0
   28.7531    0.7798  -12.7951 N   0  0  0  0  0  0  0  0  0  0  0  0
   25.5127   -0.1859  -11.7560 C   0  0  0  0  0  0  0  0  0  0  0  0
   21.3105    0.1034  -10.2139 C   0  0  0  0  0  0  0  0  0  0  0  0
  2  1  1  6
  3  2  1  1
  4  3  1  6
  5  4  1  6
  5  6  1  0
  6  7  1  6
  6  8  1  0
  8  9  1  6
  9 10  1  0
 10 11  2  0
 11 12  1  0
 12 13  1  0
 12 14  2  0
 14 15  1  0
 15 16  1  0
 16 17  3  0
 15 18  2  0
 19  8  1  6
 19  3  1  0
 18 10  1  0
M  END
$$$$
