_rank3
     RDKit          3D

 19 20  0  0  0  0  0  0  0  0999 V2000
   18.5853    1.3488   -9.9280 C   0  0  0  0  0  0  0  0  0  0  0  0
   20.0478    1.4534  -10.2781 C   0  0  0  0  0  0  0  0  0  0  0  0
   20.5630    0.1187  -10.8431 C   0  0  2  0  0  0  0  0  0  0  0  0
   19.7023   -0.9538  -10.3233 C   0  0  0  0  0  0  0  0  0  0  0  0
   20.3590   -2.2360   -9.9676 C   0  0  0  0  0  0  0  0  0  0  0  0
   21.6152   -2.4539  -10.7663 C   0  0  1  0  0  0  0  0  0  0  0  0
   21.3976   -2.5569  -12.1654 N   0  0  0  0  0  0  0  0  0  0  0  0
   22.5663   -1.3470  -10.3752 C   0  0  1  0  0  0  0  0  0  0  0  0
   23.7559   -1.5685  -11.0725 O   0  0  0  0  0  0  0  0  0  0  0  0
   24.9695   -0.9819  -10.8800 C   0  0  0  0  0  0  0  0  0  0  0  0
   25.5123   -0.3190  -11.9907 C   0  0  0  0  0  0  0  0  0  0  0  0
   26.7260    0.2908  -11.8675 C   0  0  0  0  0  0  0  0  0  0  0  0
   27.2687    0.9406  -12.9395 F   0  0  0  0  0  0  0  0  0  0  0  0
   27.4326    0.2725  -10.6801 C   0  0  0  0  0  0  0  0  0  0  0  0
   26.9097   -0.3716   -9.5935 C   0  0  0  0  0  0  0  0  0  0  0  0
   27.6649   -0.3806   -8.3560 C   0  0  0  0  0  0  0  0  0  0  0  0
   28.2783   -0.3742   -7.3789 N   0  0  0  0  0  0  0  0  0  0  0  0
   25.6772   -0.9977   -9.6983 C   0  0  0  0  0  0  0  0  0  0  0  0
   22.0160    0.0204  -10.6384 C   0  0  0  0  0  0  0  0  0  0  0  0
  2  1  1  6
  3  2  1  1
  4  3  1  6
  5  4  1  6
  5  6  1  0
  6  7  1  6
  6  8  1  0
  8  9  1  6
  9 10  1  0
 10 11  2  0
 11 12  1  0
 12 13  1  0
 12 14  2  0
 14 15  1  0
 15 16  1  0
 16 17  3  0
 15 18  2  0
 19  8  1  6
 19  3  1  0
 18 10  1  0
M  END
$$$$
