_rank11
     RDKit          3D

 19 20  0  0  0  0  0  0  0  0999 V2000
   19.3478    0.8895   -8.8051 C   0  0  0  0  0  0  0  0  0  0  0  0
   20.0506    1.4268  -10.0257 C   0  0  0  0  0  0  0  0  0  0  0  0
   20.7771    0.2942  -10.7709 C   0  0  2  0  0  0  0  0  0  0  0  0
   19.9048   -0.8891  -10.7548 C   0  0  0  0  0  0  0  0  0  0  0  0
   20.5596   -2.2103  -10.5891 C   0  0  0  0  0  0  0  0  0  0  0  0
   21.9749   -2.1936  -11.0989 C   0  0  1  0  0  0  0  0  0  0  0  0
   22.0831   -1.9294  -12.4896 N   0  0  0  0  0  0  0  0  0  0  0  0
   22.7294   -1.2146  -10.2300 C   0  0  1  0  0  0  0  0  0  0  0  0
   24.0577   -1.2288  -10.6611 O   0  0  0  0  0  0  0  0  0  0  0  0
   25.1836   -0.9816   -9.9364 C   0  0  0  0  0  0  0  0  0  0  0  0
   25.7548   -2.0908   -9.2951 C   0  0  0  0  0  0  0  0  0  0  0  0
   26.8847   -1.9143   -8.5519 C   0  0  0  0  0  0  0  0  0  0  0  0
   27.4536   -2.9839   -7.9209 F   0  0  0  0  0  0  0  0  0  0  0  0
   27.4795   -0.6745   -8.4150 C   0  0  0  0  0  0  0  0  0  0  0  0
   26.9284    0.4109   -9.0372 C   0  0  0  0  0  0  0  0  0  0  0  0
   27.5658    1.7038   -8.8824 C   0  0  0  0  0  0  0  0  0  0  0  0
   28.0748    2.7340   -8.7790 N   0  0  0  0  0  0  0  0  0  0  0  0
   25.7798    0.2523   -9.7972 C   0  0  0  0  0  0  0  0  0  0  0  0
   22.1510    0.1661  -10.2624 C   0  0  0  0  0  0  0  0  0  0  0  0
  2  1  1  6
  3  2  1  1
  4  3  1  6
  5  4  1  6
  5  6  1  0
  6  7  1  6
  6  8  1  0
  8  9  1  6
  9 10  1  0
 10 11  2  0
 11 12  1  0
 12 13  1  0
 12 14  2  0
 14 15  1  0
 15 16  1  0
 16 17  3  0
 15 18  2  0
 19  8  1  6
 19  3  1  0
 18 10  1  0
M  END
$$$$
