_rank1
     RDKit          3D

 19 20  0  0  0  0  0  0  0  0999 V2000
   27.9070    0.2090   -8.0191 C   0  0  0  0  0  0  0  0  0  0  0  0
   26.7970   -0.7720   -8.2983 C   0  0  0  0  0  0  0  0  0  0  0  0
   26.4081   -0.7360   -9.7860 C   0  0  2  0  0  0  0  0  0  0  0  0
   27.3252    0.1869  -10.4702 C   0  0  0  0  0  0  0  0  0  0  0  0
   26.7533    1.0381  -11.5427 C   0  0  0  0  0  0  0  0  0  0  0  0
   25.5513    0.3939  -12.1778 C   0  0  1  0  0  0  0  0  0  0  0  0
   25.8336   -0.8353  -12.8297 N   0  0  0  0  0  0  0  0  0  0  0  0
   24.5038    0.2849  -11.0945 C   0  0  1  0  0  0  0  0  0  0  0  0
   23.3642   -0.2652  -11.6853 O   0  0  0  0  0  0  0  0  0  0  0  0
   22.1206   -0.4086  -11.1495 C   0  0  0  0  0  0  0  0  0  0  0  0
   21.4947   -1.6432  -11.3767 C   0  0  0  0  0  0  0  0  0  0  0  0
   20.2470   -1.8544  -10.8679 C   0  0  0  0  0  0  0  0  0  0  0  0
   19.6234   -3.0511  -11.0800 F   0  0  0  0  0  0  0  0  0  0  0  0
   19.5857   -0.8862  -10.1367 C   0  0  0  0  0  0  0  0  0  0  0  0
   20.1896    0.3194   -9.9114 C   0  0  0  0  0  0  0  0  0  0  0  0
   19.4809    1.3233   -9.1421 C   0  0  0  0  0  0  0  0  0  0  0  0
   18.9201    2.1354   -8.5445 N   0  0  0  0  0  0  0  0  0  0  0  0
   21.4578    0.5537  -10.4201 C   0  0  0  0  0  0  0  0  0  0  0  0
   24.9595   -0.5181   -9.9157 C   0  0  0  0  0  0  0  0  0  0  0  0
  2  1  1  6
  3  2  1  1
  4  3  1  6
  5  4  1  6
  5  6  1  0
  6  7  1  1
  6  8  1  0
  8  9  1  6
  9 10  1  0
 10 11  2  0
 11 12  1  0
 12 13  1  0
 12 14  2  0
 14 15  1  0
 15 16  1  0
 16 17  3  0
 15 18  2  0
 19  8  1  6
 19  3  1  0
 18 10  1  0
M  END
$$$$
