_rank8
     RDKit          3D

 19 20  0  0  0  0  0  0  0  0999 V2000
   19.3728    1.6210   -8.9229 C   0  0  0  0  0  0  0  0  0  0  0  0
   19.9013    1.6291  -10.3346 C   0  0  0  0  0  0  0  0  0  0  0  0
   20.3392    0.2154  -10.7538 C   0  0  2  0  0  0  0  0  0  0  0  0
   19.3927   -0.7434  -10.1654 C   0  0  0  0  0  0  0  0  0  0  0  0
   19.9496   -2.0259   -9.6686 C   0  0  0  0  0  0  0  0  0  0  0  0
   21.2096   -2.4015  -10.3997 C   0  0  1  0  0  0  0  0  0  0  0  0
   21.0246   -2.6239  -11.7896 N   0  0  0  0  0  0  0  0  0  0  0  0
   22.2232   -1.3271  -10.0819 C   0  0  1  0  0  0  0  0  0  0  0  0
   23.4138   -1.6922  -10.7141 O   0  0  0  0  0  0  0  0  0  0  0  0
   24.6561   -1.1602  -10.5477 C   0  0  0  0  0  0  0  0  0  0  0  0
   25.4379   -1.0557  -11.7077 C   0  0  0  0  0  0  0  0  0  0  0  0
   26.6934   -0.5314  -11.6127 C   0  0  0  0  0  0  0  0  0  0  0  0
   27.4677   -0.4226  -12.7327 F   0  0  0  0  0  0  0  0  0  0  0  0
   27.2134   -0.1018  -10.4066 C   0  0  0  0  0  0  0  0  0  0  0  0
   26.4572   -0.2006   -9.2720 C   0  0  0  0  0  0  0  0  0  0  0  0
   27.0190    0.2550   -8.0156 C   0  0  0  0  0  0  0  0  0  0  0  0
   27.4520    0.6316   -7.0148 N   0  0  0  0  0  0  0  0  0  0  0  0
   25.1784   -0.7308   -9.3476 C   0  0  0  0  0  0  0  0  0  0  0  0
   21.7757    0.0418  -10.4911 C   0  0  0  0  0  0  0  0  0  0  0  0
  2  1  1  6
  3  2  1  1
  4  3  1  6
  5  4  1  6
  5  6  1  0
  6  7  1  6
  6  8  1  0
  8  9  1  6
  9 10  1  0
 10 11  2  0
 11 12  1  0
 12 13  1  0
 12 14  2  0
 14 15  1  0
 15 16  1  0
 16 17  3  0
 15 18  2  0
 19  8  1  6
 19  3  1  0
 18 10  1  0
M  END
$$$$
