_rank6
     RDKit          3D

 19 20  0  0  0  0  0  0  0  0999 V2000
   27.1627   -0.0705   -7.4677 C   0  0  0  0  0  0  0  0  0  0  0  0
   27.0349   -1.3181   -8.3041 C   0  0  0  0  0  0  0  0  0  0  0  0
   26.0292   -1.0994   -9.4472 C   0  0  2  0  0  0  0  0  0  0  0  0
   26.7291   -1.3421  -10.7170 C   0  0  0  0  0  0  0  0  0  0  0  0
   26.3815   -0.4622  -11.8601 C   0  0  0  0  0  0  0  0  0  0  0  0
   24.9804    0.0723  -11.7404 C   0  0  1  0  0  0  0  0  0  0  0  0
   23.9770   -0.9318  -11.7633 N   0  0  0  0  0  0  0  0  0  0  0  0
   24.9569    0.9319  -10.4981 C   0  0  1  0  0  0  0  0  0  0  0  0
   23.6738    1.4754  -10.4046 O   0  0  0  0  0  0  0  0  0  0  0  0
   22.4874    0.8214  -10.2672 C   0  0  0  0  0  0  0  0  0  0  0  0
   21.3509    1.5159  -10.7072 C   0  0  0  0  0  0  0  0  0  0  0  0
   20.1293    0.9190  -10.5988 C   0  0  0  0  0  0  0  0  0  0  0  0
   19.0125    1.5815  -11.0225 F   0  0  0  0  0  0  0  0  0  0  0  0
   19.9832   -0.3486  -10.0684 C   0  0  0  0  0  0  0  0  0  0  0  0
   21.0864   -1.0314   -9.6376 C   0  0  0  0  0  0  0  0  0  0  0  0
   20.9141   -2.3601   -9.0839 C   0  0  0  0  0  0  0  0  0  0  0  0
   20.7928   -3.4145   -8.6315 N   0  0  0  0  0  0  0  0  0  0  0  0
   22.3372   -0.4419   -9.7391 C   0  0  0  0  0  0  0  0  0  0  0  0
   25.3329    0.1821   -9.2579 C   0  0  0  0  0  0  0  0  0  0  0  0
  2  1  1  6
  3  2  1  1
  4  3  1  6
  5  4  1  6
  5  6  1  0
  6  7  1  1
  6  8  1  0
  8  9  1  1
  9 10  1  0
 10 11  2  0
 11 12  1  0
 12 13  1  0
 12 14  2  0
 14 15  1  0
 15 16  1  0
 16 17  3  0
 15 18  2  0
 19  8  1  6
 19  3  1  0
 18 10  1  0
M  END
$$$$
