_rank18
     RDKit          3D

 16 16  0  0  0  0  0  0  0  0999 V2000
   24.9269    2.5402  -11.5381 C   0  0  0  0  0  0  0  0  0  0  0  0
   25.1932    1.7080   -9.9513 S   0  0  0  0  0  0  0  0  0  0  0  0
   24.4316    0.0981  -10.0246 C   0  0  0  0  0  0  0  0  0  0  0  0
   23.0848   -0.0377  -10.3795 C   0  0  0  0  0  0  0  0  0  0  0  0
   22.5217   -1.2784  -10.4296 C   0  0  0  0  0  0  0  0  0  0  0  0
   21.1021   -1.5336  -10.7943 C   0  0  1  0  0  0  0  0  0  0  0  0
   20.5814   -2.6009  -10.0407 O   0  0  0  0  0  0  0  0  0  0  0  0
   20.3289   -0.3460  -10.3980 C   0  0  0  0  0  0  0  0  0  0  0  0
   19.7076    0.5740  -10.0798 N   0  0  0  0  0  0  0  0  0  0  0  0
   23.2899   -2.3974  -10.1277 C   0  0  0  0  0  0  0  0  0  0  0  0
   24.6236   -2.2410   -9.7781 C   0  0  0  0  0  0  0  0  0  0  0  0
   25.2059   -0.9941   -9.7234 C   0  0  0  0  0  0  0  0  0  0  0  0
   26.8625   -0.7780   -9.2909 S   0  0  1  0  0  6  0  0  0  0  0  0
   27.9208   -0.4716  -10.6607 C   0  0  0  0  0  0  0  0  0  0  0  0
   27.0188    0.3103   -8.2371 O   0  0  0  0  0  0  0  0  0  0  0  0
   27.3590   -2.0494   -8.6167 O   0  0  0  0  0  0  0  0  0  0  0  0
  1  2  1  6
  2  3  1  0
  3  4  2  0
  4  5  1  0
  5  6  1  0
  6  7  1  1
  6  8  1  0
  8  9  3  0
  5 10  2  0
 10 11  1  0
 11 12  2  0
 13 12  1  6
 14 13  1  6
 13 15  2  0
 13 16  2  0
 12  3  1  0
M  END
$$$$
