_rank12
     RDKit          3D

 16 16  0  0  0  0  0  0  0  0999 V2000
   25.8632   -0.0457  -13.3121 C   0  0  0  0  0  0  0  0  0  0  0  0
   26.6053   -0.3251  -11.6834 S   0  0  0  0  0  0  0  0  0  0  0  0
   25.2939   -0.5621  -10.4998 C   0  0  0  0  0  0  0  0  0  0  0  0
   24.0260   -0.9838  -10.9158 C   0  0  0  0  0  0  0  0  0  0  0  0
   23.0368   -1.1589   -9.9940 C   0  0  0  0  0  0  0  0  0  0  0  0
   21.6569   -1.6032  -10.3288 C   0  0  1  0  0  0  0  0  0  0  0  0
   20.7129   -0.9280   -9.5345 O   0  0  0  0  0  0  0  0  0  0  0  0
   21.3882   -1.1874  -11.7145 C   0  0  0  0  0  0  0  0  0  0  0  0
   21.1829   -0.8794  -12.8083 N   0  0  0  0  0  0  0  0  0  0  0  0
   23.2959   -0.9172   -8.6494 C   0  0  0  0  0  0  0  0  0  0  0  0
   24.5599   -0.4997   -8.2578 C   0  0  0  0  0  0  0  0  0  0  0  0
   25.5689   -0.3186   -9.1776 C   0  0  0  0  0  0  0  0  0  0  0  0
   27.1474    0.2001   -8.7113 S   0  0  1  0  0  6  0  0  0  0  0  0
   27.6951    1.6479   -9.5444 C   0  0  0  0  0  0  0  0  0  0  0  0
   27.2445    0.3793   -7.2022 O   0  0  0  0  0  0  0  0  0  0  0  0
   28.1395   -0.9073   -9.0384 O   0  0  0  0  0  0  0  0  0  0  0  0
  1  2  1  6
  2  3  1  0
  3  4  2  0
  4  5  1  0
  5  6  1  0
  6  7  1  1
  6  8  1  0
  8  9  3  0
  5 10  2  0
 10 11  1  0
 11 12  2  0
 13 12  1  1
 14 13  1  6
 13 15  2  0
 13 16  2  0
 12  3  1  0
M  END
$$$$
