_rank10
     RDKit          3D

 16 16  0  0  0  0  0  0  0  0999 V2000
   26.3035    0.5218  -13.5904 C   0  0  0  0  0  0  0  0  0  0  0  0
   26.8310    0.6546  -11.8625 S   0  0  0  0  0  0  0  0  0  0  0  0
   25.4585    0.2045  -10.8181 C   0  0  0  0  0  0  0  0  0  0  0  0
   24.1487    0.2355  -11.3098 C   0  0  0  0  0  0  0  0  0  0  0  0
   23.1131   -0.1127  -10.4941 C   0  0  0  0  0  0  0  0  0  0  0  0
   21.6863   -0.1141  -10.9158 C   0  0  1  0  0  0  0  0  0  0  0  0
   21.5783    0.1211  -12.2982 O   0  0  0  0  0  0  0  0  0  0  0  0
   21.1674   -1.4735  -10.6970 C   0  0  0  0  0  0  0  0  0  0  0  0
   20.7726   -2.5425  -10.5095 N   0  0  0  0  0  0  0  0  0  0  0  0
   23.3671   -0.4954   -9.1817 C   0  0  0  0  0  0  0  0  0  0  0  0
   24.6731   -0.5195   -8.7138 C   0  0  0  0  0  0  0  0  0  0  0  0
   25.7292   -0.1704   -9.5261 C   0  0  0  0  0  0  0  0  0  0  0  0
   27.3605   -0.1936   -8.9637 S   0  0  1  0  0  6  0  0  0  0  0  0
   28.4850   -0.9613  -10.0755 C   0  0  0  0  0  0  0  0  0  0  0  0
   27.8369    1.2061   -8.5988 O   0  0  0  0  0  0  0  0  0  0  0  0
   27.4143   -0.9774   -7.6597 O   0  0  0  0  0  0  0  0  0  0  0  0
  1  2  1  6
  2  3  1  0
  3  4  2  0
  4  5  1  0
  5  6  1  0
  6  7  1  6
  6  8  1  0
  8  9  3  0
  5 10  2  0
 10 11  1  0
 11 12  2  0
 13 12  1  6
 14 13  1  6
 13 15  2  0
 13 16  2  0
 12  3  1  0
M  END
$$$$
