_rank8
     RDKit          3D

 20 21  0  0  0  0  0  0  0  0999 V2000
   19.7353    2.2255  -10.1907 C   0  0  0  0  0  0  0  0  0  0  0  0
   20.9512    1.6809  -10.6048 O   0  0  0  0  0  0  0  0  0  0  0  0
   21.1247    0.2990  -10.5923 C   0  0  0  0  0  0  0  0  0  0  0  0
   20.0482   -0.5306  -10.5188 C   0  0  0  0  0  0  0  0  0  0  0  0
   20.2239   -1.8950  -10.5066 C   0  0  0  0  0  0  0  0  0  0  0  0
   19.0262   -2.7999  -10.4255 C   0  0  0  0  0  0  0  0  0  0  0  0
   17.9356   -2.0937  -10.9638 O   0  0  0  0  0  0  0  0  0  0  0  0
   21.4759   -2.4374  -10.5676 C   0  0  0  0  0  0  0  0  0  0  0  0
   22.5775   -1.6041  -10.6423 C   0  0  0  0  0  0  0  0  0  0  0  0
   22.4029   -0.2562  -10.6548 C   0  0  0  0  0  0  0  0  0  0  0  0
   23.4392    0.6589  -10.7299 O   0  0  0  0  0  0  0  0  0  0  0  0
   24.7456    0.2400  -10.6261 C   0  0  0  0  0  0  0  0  0  0  0  0
   25.3631    0.3006   -9.3742 C   0  0  0  0  0  0  0  0  0  0  0  0
   26.6541   -0.1065   -9.2469 C   0  0  0  0  0  0  0  0  0  0  0  0
   27.3297   -0.0601   -7.9699 C   0  0  0  0  0  0  0  0  0  0  0  0
   27.8896   -0.0182   -6.9538 N   0  0  0  0  0  0  0  0  0  0  0  0
   27.3942   -0.5832  -10.3087 C   0  0  0  0  0  0  0  0  0  0  0  0
   26.7624   -0.6323  -11.5321 C   0  0  0  0  0  0  0  0  0  0  0  0
   25.4471   -0.2267  -11.7060 C   0  0  0  0  0  0  0  0  0  0  0  0
   24.8310   -0.2740  -12.9988 N   0  0  0  0  0  0  0  0  0  0  0  0
  1  2  1  1
  2  3  1  0
  3  4  2  0
  4  5  1  0
  5  6  1  0
  6  7  1  1
  5  8  2  0
  8  9  1  0
  9 10  2  0
 10 11  1  0
 11 12  1  0
 12 13  2  0
 13 14  1  0
 14 15  1  0
 15 16  3  0
 14 17  2  0
 17 18  1  0
 18 19  2  0
 19 20  1  0
 10  3  1  0
 19 12  1  0
M  END
$$$$
