_rank2
     RDKit          3D

 20 21  0  0  0  0  0  0  0  0999 V2000
   26.7587    0.4600  -13.0478 C   0  0  0  0  0  0  0  0  0  0  0  0
   25.5034    0.2990  -12.4607 O   0  0  0  0  0  0  0  0  0  0  0  0
   25.4135   -0.0210  -11.1082 C   0  0  0  0  0  0  0  0  0  0  0  0
   26.5026    0.0896  -10.2995 C   0  0  0  0  0  0  0  0  0  0  0  0
   26.4096   -0.2275   -8.9640 C   0  0  0  0  0  0  0  0  0  0  0  0
   27.6202   -0.1005   -8.0819 C   0  0  0  0  0  0  0  0  0  0  0  0
   28.5528   -1.0591   -8.5169 O   0  0  0  0  0  0  0  0  0  0  0  0
   25.2282   -0.6569   -8.4300 C   0  0  0  0  0  0  0  0  0  0  0  0
   24.1146   -0.7734   -9.2423 C   0  0  0  0  0  0  0  0  0  0  0  0
   24.2073   -0.4594  -10.5615 C   0  0  0  0  0  0  0  0  0  0  0  0
   23.1516   -0.5404  -11.4536 O   0  0  0  0  0  0  0  0  0  0  0  0
   21.8642   -0.6991  -10.9947 C   0  0  0  0  0  0  0  0  0  0  0  0
   21.2250    0.4030  -10.4209 C   0  0  0  0  0  0  0  0  0  0  0  0
   19.9531    0.2704   -9.9590 C   0  0  0  0  0  0  0  0  0  0  0  0
   19.2563    1.3853   -9.3586 C   0  0  0  0  0  0  0  0  0  0  0  0
   18.6873    2.2844   -8.8941 N   0  0  0  0  0  0  0  0  0  0  0  0
   19.2534   -0.9161  -10.0303 C   0  0  0  0  0  0  0  0  0  0  0  0
   19.9062   -1.9873  -10.6001 C   0  0  0  0  0  0  0  0  0  0  0  0
   21.2034   -1.8955  -11.0835 C   0  0  0  0  0  0  0  0  0  0  0  0
   21.8558   -3.0379  -11.6512 N   0  0  0  0  0  0  0  0  0  0  0  0
  1  2  1  1
  2  3  1  0
  3  4  2  0
  4  5  1  0
  5  6  1  0
  6  7  1  1
  5  8  2  0
  8  9  1  0
  9 10  2  0
 10 11  1  0
 11 12  1  0
 12 13  2  0
 13 14  1  0
 14 15  1  0
 15 16  3  0
 14 17  2  0
 17 18  1  0
 18 19  2  0
 19 20  1  0
 10  3  1  0
 19 12  1  0
M  END
$$$$
