_rank12
     RDKit          3D

 20 21  0  0  0  0  0  0  0  0999 V2000
   20.8288   -1.4774  -13.1684 C   0  0  0  0  0  0  0  0  0  0  0  0
   21.9905   -1.1328  -12.4768 O   0  0  0  0  0  0  0  0  0  0  0  0
   21.8916   -0.5038  -11.2381 C   0  0  0  0  0  0  0  0  0  0  0  0
   20.6726   -0.2015  -10.7136 C   0  0  0  0  0  0  0  0  0  0  0  0
   20.5791    0.4198   -9.4897 C   0  0  0  0  0  0  0  0  0  0  0  0
   19.2264    0.7478   -8.9218 C   0  0  0  0  0  0  0  0  0  0  0  0
   18.4277    1.1997   -9.9875 O   0  0  0  0  0  0  0  0  0  0  0  0
   21.7030    0.7425   -8.7839 C   0  0  0  0  0  0  0  0  0  0  0  0
   22.9474    0.4403   -9.3071 C   0  0  0  0  0  0  0  0  0  0  0  0
   23.0387   -0.1740  -10.5161 C   0  0  0  0  0  0  0  0  0  0  0  0
   24.2349   -0.5193  -11.1217 O   0  0  0  0  0  0  0  0  0  0  0  0
   25.3515   -0.7757  -10.3597 C   0  0  0  0  0  0  0  0  0  0  0  0
   25.8212    0.2318   -9.5131 C   0  0  0  0  0  0  0  0  0  0  0  0
   26.9237    0.0026   -8.7512 C   0  0  0  0  0  0  0  0  0  0  0  0
   27.4421    1.0178   -7.8626 C   0  0  0  0  0  0  0  0  0  0  0  0
   27.8574    1.8468   -7.1639 N   0  0  0  0  0  0  0  0  0  0  0  0
   27.6107   -1.1933   -8.7738 C   0  0  0  0  0  0  0  0  0  0  0  0
   27.1274   -2.1698   -9.6170 C   0  0  0  0  0  0  0  0  0  0  0  0
   26.0064   -1.9775  -10.4115 C   0  0  0  0  0  0  0  0  0  0  0  0
   25.5462   -3.0108  -11.2910 N   0  0  0  0  0  0  0  0  0  0  0  0
  1  2  1  1
  2  3  1  0
  3  4  2  0
  4  5  1  0
  5  6  1  0
  6  7  1  1
  5  8  2  0
  8  9  1  0
  9 10  2  0
 10 11  1  0
 11 12  1  0
 12 13  2  0
 13 14  1  0
 14 15  1  0
 15 16  3  0
 14 17  2  0
 17 18  1  0
 18 19  2  0
 19 20  1  0
 10  3  1  0
 19 12  1  0
M  END
$$$$
