_rank7
     RDKit          3D

 20 21  0  0  0  0  0  0  0  0999 V2000
   27.0889    1.2509  -13.0322 C   0  0  0  0  0  0  0  0  0  0  0  0
   25.9453    0.5753  -12.6053 O   0  0  0  0  0  0  0  0  0  0  0  0
   25.9445   -0.0586  -11.3652 C   0  0  0  0  0  0  0  0  0  0  0  0
   27.0534   -0.0320  -10.5764 C   0  0  0  0  0  0  0  0  0  0  0  0
   27.0487   -0.6595   -9.3521 C   0  0  0  0  0  0  0  0  0  0  0  0
   28.2802   -0.6221   -8.4908 C   0  0  0  0  0  0  0  0  0  0  0  0
   28.1408    0.4694   -7.6149 O   0  0  0  0  0  0  0  0  0  0  0  0
   25.9361   -1.3168   -8.9098 C   0  0  0  0  0  0  0  0  0  0  0  0
   24.8033   -1.3507   -9.7030 C   0  0  0  0  0  0  0  0  0  0  0  0
   24.8088   -0.7301  -10.9122 C   0  0  0  0  0  0  0  0  0  0  0  0
   23.7267   -0.7052  -11.7756 O   0  0  0  0  0  0  0  0  0  0  0  0
   22.4644   -1.0042  -11.3171 C   0  0  0  0  0  0  0  0  0  0  0  0
   21.9933   -0.3305  -10.1872 C   0  0  0  0  0  0  0  0  0  0  0  0
   20.7495   -0.6098   -9.7145 C   0  0  0  0  0  0  0  0  0  0  0  0
   20.2245    0.0644   -8.5487 C   0  0  0  0  0  0  0  0  0  0  0  0
   19.7880    0.5922   -7.6113 N   0  0  0  0  0  0  0  0  0  0  0  0
   19.9184   -1.5391  -10.3045 C   0  0  0  0  0  0  0  0  0  0  0  0
   20.4067   -2.1895  -11.4166 C   0  0  0  0  0  0  0  0  0  0  0  0
   21.6696   -1.9351  -11.9316 C   0  0  0  0  0  0  0  0  0  0  0  0
   22.1498   -2.6471  -13.0786 N   0  0  0  0  0  0  0  0  0  0  0  0
  1  2  1  1
  2  3  1  0
  3  4  2  0
  4  5  1  0
  5  6  1  0
  6  7  1  1
  5  8  2  0
  8  9  1  0
  9 10  2  0
 10 11  1  0
 11 12  1  0
 12 13  2  0
 13 14  1  0
 14 15  1  0
 15 16  3  0
 14 17  2  0
 17 18  1  0
 18 19  2  0
 19 20  1  0
 10  3  1  0
 19 12  1  0
M  END
$$$$
