_rank17
     RDKit          3D

 20 21  0  0  0  0  0  0  0  0999 V2000
   22.4584   -0.0227  -14.0785 C   0  0  0  0  0  0  0  0  0  0  0  0
   23.2552   -0.1302  -12.9382 O   0  0  0  0  0  0  0  0  0  0  0  0
   22.6601   -0.3919  -11.7065 C   0  0  0  0  0  0  0  0  0  0  0  0
   21.3550   -0.0724  -11.4894 C   0  0  0  0  0  0  0  0  0  0  0  0
   20.7708   -0.3326  -10.2713 C   0  0  0  0  0  0  0  0  0  0  0  0
   19.3283    0.0250  -10.0450 C   0  0  0  0  0  0  0  0  0  0  0  0
   19.2779    1.4085   -9.7971 O   0  0  0  0  0  0  0  0  0  0  0  0
   21.4878   -0.9128   -9.2640 C   0  0  0  0  0  0  0  0  0  0  0  0
   22.8150   -1.2416   -9.4729 C   0  0  0  0  0  0  0  0  0  0  0  0
   23.3911   -0.9847  -10.6769 C   0  0  0  0  0  0  0  0  0  0  0  0
   24.7089   -1.2783  -10.9841 O   0  0  0  0  0  0  0  0  0  0  0  0
   25.7086   -1.0217  -10.0743 C   0  0  0  0  0  0  0  0  0  0  0  0
   26.2766    0.2549  -10.0568 C   0  0  0  0  0  0  0  0  0  0  0  0
   27.2671    0.5320   -9.1677 C   0  0  0  0  0  0  0  0  0  0  0  0
   27.8811    1.8395   -9.1169 C   0  0  0  0  0  0  0  0  0  0  0  0
   28.3733    2.8892   -9.0559 N   0  0  0  0  0  0  0  0  0  0  0  0
   27.7453   -0.3990   -8.2694 C   0  0  0  0  0  0  0  0  0  0  0  0
   27.1690   -1.6498   -8.3074 C   0  0  0  0  0  0  0  0  0  0  0  0
   26.1564   -1.9748   -9.1985 C   0  0  0  0  0  0  0  0  0  0  0  0
   25.5959   -3.2932   -9.2209 N   0  0  0  0  0  0  0  0  0  0  0  0
  1  2  1  1
  2  3  1  0
  3  4  2  0
  4  5  1  0
  5  6  1  0
  6  7  1  1
  5  8  2  0
  8  9  1  0
  9 10  2  0
 10 11  1  0
 11 12  1  0
 12 13  2  0
 13 14  1  0
 14 15  1  0
 15 16  3  0
 14 17  2  0
 17 18  1  0
 18 19  2  0
 19 20  1  0
 10  3  1  0
 19 12  1  0
M  END
$$$$
