_rank11
     RDKit          3D

 20 21  0  0  0  0  0  0  0  0999 V2000
   19.7995    1.9485   -9.4068 C   0  0  0  0  0  0  0  0  0  0  0  0
   20.8149    1.5471  -10.2754 O   0  0  0  0  0  0  0  0  0  0  0  0
   20.9837    0.1934  -10.5560 C   0  0  0  0  0  0  0  0  0  0  0  0
   19.9066   -0.5958  -10.8193 C   0  0  0  0  0  0  0  0  0  0  0  0
   20.0776   -1.9326  -11.0961 C   0  0  0  0  0  0  0  0  0  0  0  0
   18.8793   -2.7929  -11.3855 C   0  0  0  0  0  0  0  0  0  0  0  0
   18.2173   -3.0069  -10.1633 O   0  0  0  0  0  0  0  0  0  0  0  0
   21.3255   -2.4875  -11.1107 C   0  0  0  0  0  0  0  0  0  0  0  0
   22.4277   -1.6952  -10.8443 C   0  0  0  0  0  0  0  0  0  0  0  0
   22.2577   -0.3745  -10.5715 C   0  0  0  0  0  0  0  0  0  0  0  0
   23.2953    0.4996  -10.2955 O   0  0  0  0  0  0  0  0  0  0  0  0
   24.5345    0.0181   -9.9409 C   0  0  0  0  0  0  0  0  0  0  0  0
   25.5085   -0.1004  -10.9358 C   0  0  0  0  0  0  0  0  0  0  0  0
   26.7403   -0.5750  -10.6101 C   0  0  0  0  0  0  0  0  0  0  0  0
   27.7758   -0.7131  -11.6089 C   0  0  0  0  0  0  0  0  0  0  0  0
   28.6216   -0.8220  -12.3967 N   0  0  0  0  0  0  0  0  0  0  0  0
   27.0798   -0.9505   -9.3270 C   0  0  0  0  0  0  0  0  0  0  0  0
   26.1016   -0.8243   -8.3650 C   0  0  0  0  0  0  0  0  0  0  0  0
   24.8321   -0.3451   -8.6543 C   0  0  0  0  0  0  0  0  0  0  0  0
   23.8353   -0.2474   -7.6298 N   0  0  0  0  0  0  0  0  0  0  0  0
  1  2  1  1
  2  3  1  0
  3  4  2  0
  4  5  1  0
  5  6  1  0
  6  7  1  1
  5  8  2  0
  8  9  1  0
  9 10  2  0
 10 11  1  0
 11 12  1  0
 12 13  2  0
 13 14  1  0
 14 15  1  0
 15 16  3  0
 14 17  2  0
 17 18  1  0
 18 19  2  0
 19 20  1  0
 10  3  1  0
 19 12  1  0
M  END
$$$$
