_rank1
     RDKit          3D

 20 21  0  0  0  0  0  0  0  0999 V2000
   26.8450    0.5803  -13.1830 C   0  0  0  0  0  0  0  0  0  0  0  0
   25.6410    0.6159  -12.4788 O   0  0  0  0  0  0  0  0  0  0  0  0
   25.5816    0.0852  -11.1925 C   0  0  0  0  0  0  0  0  0  0  0  0
   26.7109   -0.0319  -10.4419 C   0  0  0  0  0  0  0  0  0  0  0  0
   26.6480   -0.5566   -9.1717 C   0  0  0  0  0  0  0  0  0  0  0  0
   27.9029   -0.6800   -8.3534 C   0  0  0  0  0  0  0  0  0  0  0  0
   28.1972    0.5998   -7.8499 O   0  0  0  0  0  0  0  0  0  0  0  0
   25.4565   -0.9673   -8.6453 C   0  0  0  0  0  0  0  0  0  0  0  0
   24.3022   -0.8534   -9.3989 C   0  0  0  0  0  0  0  0  0  0  0  0
   24.3653   -0.3344  -10.6535 C   0  0  0  0  0  0  0  0  0  0  0  0
   23.2682   -0.1772  -11.4834 O   0  0  0  0  0  0  0  0  0  0  0  0
   22.0010   -0.4439  -11.0186 C   0  0  0  0  0  0  0  0  0  0  0  0
   21.2720    0.6015  -10.4458 C   0  0  0  0  0  0  0  0  0  0  0  0
   20.0180    0.3623   -9.9781 C   0  0  0  0  0  0  0  0  0  0  0  0
   19.2306    1.4157   -9.3786 C   0  0  0  0  0  0  0  0  0  0  0  0
   18.5895    2.2654   -8.9150 N   0  0  0  0  0  0  0  0  0  0  0  0
   19.4221   -0.8800  -10.0426 C   0  0  0  0  0  0  0  0  0  0  0  0
   20.1620   -1.8935  -10.6115 C   0  0  0  0  0  0  0  0  0  0  0  0
   21.4447   -1.6928  -11.1007 C   0  0  0  0  0  0  0  0  0  0  0  0
   22.1903   -2.7772  -11.6673 N   0  0  0  0  0  0  0  0  0  0  0  0
  1  2  1  1
  2  3  1  0
  3  4  2  0
  4  5  1  0
  5  6  1  0
  6  7  1  1
  5  8  2  0
  8  9  1  0
  9 10  2  0
 10 11  1  0
 11 12  1  0
 12 13  2  0
 13 14  1  0
 14 15  1  0
 15 16  3  0
 14 17  2  0
 17 18  1  0
 18 19  2  0
 19 20  1  0
 10  3  1  0
 19 12  1  0
M  END
$$$$
