_rank14
     RDKit          3D

 20 21  0  0  0  0  0  0  0  0999 V2000
   21.2820   -1.9434  -13.6051 C   0  0  0  0  0  0  0  0  0  0  0  0
   22.0309   -2.1707  -12.4501 O   0  0  0  0  0  0  0  0  0  0  0  0
   21.9488   -1.2713  -11.3900 C   0  0  0  0  0  0  0  0  0  0  0  0
   20.8304   -1.2176  -10.6162 C   0  0  0  0  0  0  0  0  0  0  0  0
   20.7531   -0.3277   -9.5699 C   0  0  0  0  0  0  0  0  0  0  0  0
   19.5121   -0.2790   -8.7230 C   0  0  0  0  0  0  0  0  0  0  0  0
   18.5551   -1.1031   -9.3419 O   0  0  0  0  0  0  0  0  0  0  0  0
   21.7928    0.5132   -9.2916 C   0  0  0  0  0  0  0  0  0  0  0  0
   22.9345    0.4678  -10.0713 C   0  0  0  0  0  0  0  0  0  0  0  0
   23.0100   -0.4121  -11.1045 C   0  0  0  0  0  0  0  0  0  0  0  0
   24.1080   -0.5353  -11.9390 O   0  0  0  0  0  0  0  0  0  0  0  0
   25.3820   -0.4097  -11.4350 C   0  0  0  0  0  0  0  0  0  0  0  0
   25.6418   -0.9142  -10.1580 C   0  0  0  0  0  0  0  0  0  0  0  0
   26.8928   -0.8007   -9.6379 C   0  0  0  0  0  0  0  0  0  0  0  0
   27.2033   -1.3090   -8.3209 C   0  0  0  0  0  0  0  0  0  0  0  0
   27.4329   -1.7186   -7.2592 N   0  0  0  0  0  0  0  0  0  0  0  0
   27.9327   -0.2033  -10.3192 C   0  0  0  0  0  0  0  0  0  0  0  0
   27.6503    0.2860  -11.5758 C   0  0  0  0  0  0  0  0  0  0  0  0
   26.3880    0.1914  -12.1438 C   0  0  0  0  0  0  0  0  0  0  0  0
   26.1286    0.7307  -13.4456 N   0  0  0  0  0  0  0  0  0  0  0  0
  1  2  1  1
  2  3  1  0
  3  4  2  0
  4  5  1  0
  5  6  1  0
  6  7  1  1
  5  8  2  0
  8  9  1  0
  9 10  2  0
 10 11  1  0
 11 12  1  0
 12 13  2  0
 13 14  1  0
 14 15  1  0
 15 16  3  0
 14 17  2  0
 17 18  1  0
 18 19  2  0
 19 20  1  0
 10  3  1  0
 19 12  1  0
M  END
$$$$
