_rank13
     RDKit          3D

 20 21  0  0  0  0  0  0  0  0999 V2000
   28.0431   -0.0208  -12.5196 C   0  0  0  0  0  0  0  0  0  0  0  0
   26.6822   -0.1744  -12.2537 O   0  0  0  0  0  0  0  0  0  0  0  0
   26.2372   -0.1877  -10.9340 C   0  0  0  0  0  0  0  0  0  0  0  0
   27.1237   -0.0858   -9.9063 C   0  0  0  0  0  0  0  0  0  0  0  0
   26.6802   -0.0994   -8.6041 C   0  0  0  0  0  0  0  0  0  0  0  0
   27.6701    0.0143   -7.4785 C   0  0  0  0  0  0  0  0  0  0  0  0
   28.8345   -0.6647   -7.8800 O   0  0  0  0  0  0  0  0  0  0  0  0
   25.3488   -0.2150   -8.3222 C   0  0  0  0  0  0  0  0  0  0  0  0
   24.4386   -0.3195   -9.3585 C   0  0  0  0  0  0  0  0  0  0  0  0
   24.8777   -0.3055  -10.6447 C   0  0  0  0  0  0  0  0  0  0  0  0
   24.0472   -0.4014  -11.7484 O   0  0  0  0  0  0  0  0  0  0  0  0
   22.7745   -0.9079  -11.6189 C   0  0  0  0  0  0  0  0  0  0  0  0
   22.3763   -1.3867  -10.3681 C   0  0  0  0  0  0  0  0  0  0  0  0
   21.1238   -1.8933  -10.2157 C   0  0  0  0  0  0  0  0  0  0  0  0
   20.6726   -2.3988   -8.9390 C   0  0  0  0  0  0  0  0  0  0  0  0
   20.3052   -2.8224   -7.9224 N   0  0  0  0  0  0  0  0  0  0  0  0
   20.2143   -1.9584  -11.2507 C   0  0  0  0  0  0  0  0  0  0  0  0
   20.6318   -1.4802  -12.4735 C   0  0  0  0  0  0  0  0  0  0  0  0
   21.9007   -0.9556  -12.6725 C   0  0  0  0  0  0  0  0  0  0  0  0
   22.3047   -0.4865  -13.9647 N   0  0  0  0  0  0  0  0  0  0  0  0
  1  2  1  1
  2  3  1  0
  3  4  2  0
  4  5  1  0
  5  6  1  0
  6  7  1  1
  5  8  2  0
  8  9  1  0
  9 10  2  0
 10 11  1  0
 11 12  1  0
 12 13  2  0
 13 14  1  0
 14 15  1  0
 15 16  3  0
 14 17  2  0
 17 18  1  0
 18 19  2  0
 19 20  1  0
 10  3  1  0
 19 12  1  0
M  END
$$$$
