_rank15
     RDKit          3D

 20 21  0  0  0  0  0  0  0  0999 V2000
   24.1678    0.5312  -13.6484 C   0  0  0  0  0  0  0  0  0  0  0  0
   23.4327   -0.5603  -13.1848 O   0  0  0  0  0  0  0  0  0  0  0  0
   22.8905   -0.5285  -11.9023 C   0  0  0  0  0  0  0  0  0  0  0  0
   21.5447   -0.4289  -11.7249 C   0  0  0  0  0  0  0  0  0  0  0  0
   21.0130   -0.3978  -10.4564 C   0  0  0  0  0  0  0  0  0  0  0  0
   19.5248   -0.2880  -10.2746 C   0  0  0  0  0  0  0  0  0  0  0  0
   19.1668   -1.1723   -9.2414 O   0  0  0  0  0  0  0  0  0  0  0  0
   21.8232   -0.4658   -9.3590 C   0  0  0  0  0  0  0  0  0  0  0  0
   23.1925   -0.5669   -9.5270 C   0  0  0  0  0  0  0  0  0  0  0  0
   23.7168   -0.5981  -10.7807 C   0  0  0  0  0  0  0  0  0  0  0  0
   25.0706   -0.7001  -11.0523 O   0  0  0  0  0  0  0  0  0  0  0  0
   25.9901   -0.6576  -10.0296 C   0  0  0  0  0  0  0  0  0  0  0  0
   26.6286    0.5563   -9.7630 C   0  0  0  0  0  0  0  0  0  0  0  0
   27.5422    0.6228   -8.7583 C   0  0  0  0  0  0  0  0  0  0  0  0
   28.2251    1.8588   -8.4500 C   0  0  0  0  0  0  0  0  0  0  0  0
   28.7605    2.8616   -8.2142 N   0  0  0  0  0  0  0  0  0  0  0  0
   27.8739   -0.4654   -7.9783 C   0  0  0  0  0  0  0  0  0  0  0  0
   27.2306   -1.6503   -8.2619 C   0  0  0  0  0  0  0  0  0  0  0  0
   26.2925   -1.7619   -9.2779 C   0  0  0  0  0  0  0  0  0  0  0  0
   25.6594   -3.0170   -9.5554 N   0  0  0  0  0  0  0  0  0  0  0  0
  1  2  1  1
  2  3  1  0
  3  4  2  0
  4  5  1  0
  5  6  1  0
  6  7  1  1
  5  8  2  0
  8  9  1  0
  9 10  2  0
 10 11  1  0
 11 12  1  0
 12 13  2  0
 13 14  1  0
 14 15  1  0
 15 16  3  0
 14 17  2  0
 17 18  1  0
 18 19  2  0
 19 20  1  0
 10  3  1  0
 19 12  1  0
M  END
$$$$
