_rank4
     RDKit          3D

 37 40  0  0  0  0  0  0  0  0999 V2000
   -2.1369   -8.2596   10.4873 C   0  0  0  0  0  0  0  0  0  0  0  0
   -3.4336   -8.6354    9.9353 N   0  0  0  0  0  0  0  0  0  0  0  0
   -3.5243   -9.3255    8.7151 N   0  0  0  0  0  0  0  0  0  0  0  0
   -3.6693  -10.6158    8.6090 C   0  0  0  0  0  0  0  0  0  0  0  0
   -3.3255  -11.3142    7.4049 N   0  0  0  0  0  0  0  0  0  0  0  0
   -3.9132  -13.0882    7.0764 Br  0  0  0  0  0  0  0  0  0  0  0  0
   -4.1939  -11.3622    9.7168 N   0  0  0  0  0  0  0  0  0  0  0  0
   -4.9040  -10.7496   10.7709 N   0  0  0  0  0  0  0  0  0  0  0  0
   -4.2970  -10.4978   11.9635 C   0  0  0  0  0  0  0  0  0  0  0  0
   -3.0918  -10.8133   12.1530 O   0  0  0  0  0  0  0  0  0  0  0  0
   -4.9914   -9.9134   12.9624 N   0  0  0  0  0  0  0  0  0  0  0  0
   -6.3032   -9.6032   12.8197 C   0  0  0  0  0  0  0  0  0  0  0  0
   -6.9629   -8.9084   13.8922 N   0  0  0  0  0  0  0  0  0  0  0  0
   -6.3900   -8.7757   15.2051 C   0  0  0  0  0  0  0  0  0  0  0  0
   -6.8883   -9.5349   16.2919 C   0  0  0  0  0  0  0  0  0  0  0  0
   -6.3118   -9.3373   17.5414 C   0  0  0  0  0  0  0  0  0  0  0  0
   -6.5600   -9.9024   18.7693 C   0  0  0  0  0  0  0  0  0  0  0  0
   -5.7013   -9.3328   19.6475 N   0  0  0  0  0  0  0  0  0  0  0  0
   -5.5732   -9.6846   21.0535 C   0  0  0  0  0  0  0  0  0  0  0  0
   -4.9156   -8.4535   19.0347 N   0  0  0  0  0  0  0  0  0  0  0  0
   -5.2935   -8.4487   17.7430 C   0  0  0  0  0  0  0  0  0  0  0  0
   -4.7793   -7.6787   16.7068 C   0  0  0  0  0  0  0  0  0  0  0  0
   -5.3422   -7.8392   15.4260 C   0  0  0  0  0  0  0  0  0  0  0  0
   -4.8578   -7.0994   14.3964 F   0  0  0  0  0  0  0  0  0  0  0  0
   -6.9519   -9.9061   11.6461 N   0  0  0  0  0  0  0  0  0  0  0  0
   -8.4119   -9.7170   11.4880 C   0  0  0  0  0  0  0  0  0  0  0  0
   -9.1700  -10.8732   12.0955 C   0  0  0  0  0  0  0  0  0  0  0  0
   -8.4746  -11.9824   12.6086 C   0  0  0  0  0  0  0  0  0  0  0  0
   -9.1686  -13.0423   13.2007 C   0  0  0  0  0  0  0  0  0  0  0  0
   -8.4866  -14.1045   13.6971 F   0  0  0  0  0  0  0  0  0  0  0  0
  -10.5629  -13.0057   13.2839 C   0  0  0  0  0  0  0  0  0  0  0  0
  -11.2382  -14.0300   13.8619 F   0  0  0  0  0  0  0  0  0  0  0  0
  -11.2637  -11.9119   12.7708 C   0  0  0  0  0  0  0  0  0  0  0  0
  -10.5748  -10.8491   12.1777 C   0  0  0  0  0  0  0  0  0  0  0  0
  -11.2805   -9.8090   11.6706 F   0  0  0  0  0  0  0  0  0  0  0  0
   -6.2314  -10.4683   10.6193 C   0  0  0  0  0  0  0  0  0  0  0  0
   -6.7928  -10.7237    9.5170 O   0  0  0  0  0  0  0  0  0  0  0  0
  1  2  1  6
  2  3  1  0
  3  4  2  3
  4  5  1  0
  5  6  1  0
  4  7  1  0
  7  8  1  0
  8  9  1  0
  9 10  2  0
  9 11  1  0
 11 12  2  0
 12 13  1  0
 13 14  1  0
 14 15  2  0
 15 16  1  0
 16 17  2  0
 17 18  1  0
 19 18  1  1
 18 20  1  0
 20 21  2  0
 21 22  1  0
 22 23  2  0
 23 24  1  0
 12 25  1  0
 26 25  1  6
 26 27  1  0
 27 28  2  0
 28 29  1  0
 29 30  1  0
 29 31  2  0
 31 32  1  0
 31 33  1  0
 33 34  2  0
 34 35  1  0
 25 36  1  0
 36 37  2  0
 36  8  1  0
 23 14  1  0
 34 27  1  0
 21 16  1  0
M  END
$$$$
