_rank10
     RDKit          3D

 37 40  0  0  0  0  0  0  0  0999 V2000
    0.3622  -10.3619    8.9011 C   0  0  0  0  0  0  0  0  0  0  0  0
   -1.0358   -9.9499    8.9555 N   0  0  0  0  0  0  0  0  0  0  0  0
   -2.0665  -10.8591    8.6646 N   0  0  0  0  0  0  0  0  0  0  0  0
   -3.2312  -10.8618    9.2484 C   0  0  0  0  0  0  0  0  0  0  0  0
   -4.1322  -11.9700    9.1226 N   0  0  0  0  0  0  0  0  0  0  0  0
   -3.7994  -13.6304    9.9786 Br  0  0  0  0  0  0  0  0  0  0  0  0
   -3.6331   -9.7277   10.0306 N   0  0  0  0  0  0  0  0  0  0  0  0
   -4.8228   -9.7174   10.7890 N   0  0  0  0  0  0  0  0  0  0  0  0
   -5.8695  -10.5199   10.4506 C   0  0  0  0  0  0  0  0  0  0  0  0
   -5.8003  -11.2821    9.4495 O   0  0  0  0  0  0  0  0  0  0  0  0
   -7.0014  -10.4960   11.1852 N   0  0  0  0  0  0  0  0  0  0  0  0
   -7.1382   -9.6553   12.2397 C   0  0  0  0  0  0  0  0  0  0  0  0
   -8.3371   -9.7375   13.0296 N   0  0  0  0  0  0  0  0  0  0  0  0
   -9.6426   -9.9116   12.4508 C   0  0  0  0  0  0  0  0  0  0  0  0
  -10.4375   -8.7906   12.1087 C   0  0  0  0  0  0  0  0  0  0  0  0
  -11.7023   -9.0268   11.5821 C   0  0  0  0  0  0  0  0  0  0  0  0
  -12.6963   -8.1776   11.1587 C   0  0  0  0  0  0  0  0  0  0  0  0
  -13.7260   -8.9512   10.7414 N   0  0  0  0  0  0  0  0  0  0  0  0
  -14.9634   -8.4647   10.1505 C   0  0  0  0  0  0  0  0  0  0  0  0
  -13.4262  -10.2400   10.8634 N   0  0  0  0  0  0  0  0  0  0  0  0
  -12.1871  -10.2893   11.3865 C   0  0  0  0  0  0  0  0  0  0  0  0
  -11.4440  -11.4168   11.7146 C   0  0  0  0  0  0  0  0  0  0  0  0
  -10.1610  -11.2228   12.2617 C   0  0  0  0  0  0  0  0  0  0  0  0
   -9.4145  -12.3075   12.5904 F   0  0  0  0  0  0  0  0  0  0  0  0
   -6.1177   -8.7919   12.5604 N   0  0  0  0  0  0  0  0  0  0  0  0
   -6.2675   -7.7597   13.6113 C   0  0  0  0  0  0  0  0  0  0  0  0
   -5.7569   -8.2691   14.9382 C   0  0  0  0  0  0  0  0  0  0  0  0
   -5.1828   -9.5493   15.0299 C   0  0  0  0  0  0  0  0  0  0  0  0
   -4.6796  -10.0150   16.2487 C   0  0  0  0  0  0  0  0  0  0  0  0
   -4.1230  -11.2497   16.3238 F   0  0  0  0  0  0  0  0  0  0  0  0
   -4.7471   -9.2080   17.3874 C   0  0  0  0  0  0  0  0  0  0  0  0
   -4.2556   -9.6552   18.5697 F   0  0  0  0  0  0  0  0  0  0  0  0
   -5.3220   -7.9376   17.3088 C   0  0  0  0  0  0  0  0  0  0  0  0
   -5.8267   -7.4667   16.0923 C   0  0  0  0  0  0  0  0  0  0  0  0
   -6.3968   -6.2378   16.0482 F   0  0  0  0  0  0  0  0  0  0  0  0
   -4.9535   -8.8455   11.8314 C   0  0  0  0  0  0  0  0  0  0  0  0
   -3.9857   -8.0895   12.1267 O   0  0  0  0  0  0  0  0  0  0  0  0
  1  2  1  6
  2  3  1  0
  3  4  2  3
  4  5  1  0
  5  6  1  0
  4  7  1  0
  7  8  1  0
  8  9  1  0
  9 10  2  0
  9 11  1  0
 11 12  2  0
 12 13  1  0
 13 14  1  0
 14 15  2  0
 15 16  1  0
 16 17  2  0
 17 18  1  0
 19 18  1  1
 18 20  1  0
 20 21  2  0
 21 22  1  0
 22 23  2  0
 23 24  1  0
 12 25  1  0
 26 25  1  6
 26 27  1  0
 27 28  2  0
 28 29  1  0
 29 30  1  0
 29 31  2  0
 31 32  1  0
 31 33  1  0
 33 34  2  0
 34 35  1  0
 25 36  1  0
 36 37  2  0
 36  8  1  0
 23 14  1  0
 34 27  1  0
 21 16  1  0
M  END
$$$$
