_rank6
     RDKit          3D

 37 40  0  0  0  0  0  0  0  0999 V2000
   -2.8944  -10.1369    9.9283 C   0  0  0  0  0  0  0  0  0  0  0  0
   -4.0163   -9.4530   10.5615 N   0  0  0  0  0  0  0  0  0  0  0  0
   -4.0958   -8.0503   10.5645 N   0  0  0  0  0  0  0  0  0  0  0  0
   -3.6841   -7.2926   11.5410 C   0  0  0  0  0  0  0  0  0  0  0  0
   -3.2991   -5.9288   11.3229 N   0  0  0  0  0  0  0  0  0  0  0  0
   -3.3003   -4.6534   12.7277 Br  0  0  0  0  0  0  0  0  0  0  0  0
   -3.6024   -7.8315   12.8686 N   0  0  0  0  0  0  0  0  0  0  0  0
   -4.6788   -8.5140   13.4736 N   0  0  0  0  0  0  0  0  0  0  0  0
   -4.4625   -9.6389   14.2098 C   0  0  0  0  0  0  0  0  0  0  0  0
   -3.2983  -10.0975   14.3595 O   0  0  0  0  0  0  0  0  0  0  0  0
   -5.5036  -10.2813   14.7797 N   0  0  0  0  0  0  0  0  0  0  0  0
   -6.7772   -9.8522   14.6031 C   0  0  0  0  0  0  0  0  0  0  0  0
   -7.8323  -10.5330   15.3039 N   0  0  0  0  0  0  0  0  0  0  0  0
   -7.5838  -11.5309   16.3100 C   0  0  0  0  0  0  0  0  0  0  0  0
   -6.6373  -11.3014   17.3381 C   0  0  0  0  0  0  0  0  0  0  0  0
   -6.4210  -12.3181   18.2614 C   0  0  0  0  0  0  0  0  0  0  0  0
   -5.5905  -12.4092   19.3524 C   0  0  0  0  0  0  0  0  0  0  0  0
   -5.7819  -13.6353   19.8938 N   0  0  0  0  0  0  0  0  0  0  0  0
   -5.1509  -14.1314   21.1073 C   0  0  0  0  0  0  0  0  0  0  0  0
   -6.7000  -14.3126   19.2125 N   0  0  0  0  0  0  0  0  0  0  0  0
   -7.0886  -13.5091   18.2051 C   0  0  0  0  0  0  0  0  0  0  0  0
   -8.0199  -13.7789   17.2097 C   0  0  0  0  0  0  0  0  0  0  0  0
   -8.2615  -12.7801   16.2467 C   0  0  0  0  0  0  0  0  0  0  0  0
   -9.1668  -13.0181   15.2640 F   0  0  0  0  0  0  0  0  0  0  0  0
   -7.0237   -8.7552   13.8120 N   0  0  0  0  0  0  0  0  0  0  0  0
   -8.4005   -8.3284   13.4735 C   0  0  0  0  0  0  0  0  0  0  0  0
   -8.9828   -9.2080   12.3928 C   0  0  0  0  0  0  0  0  0  0  0  0
   -8.3007  -10.3665   11.9809 C   0  0  0  0  0  0  0  0  0  0  0  0
   -8.8492  -11.2022   11.0029 C   0  0  0  0  0  0  0  0  0  0  0  0
   -8.1846  -12.3200   10.6175 F   0  0  0  0  0  0  0  0  0  0  0  0
  -10.0822  -10.8877   10.4256 C   0  0  0  0  0  0  0  0  0  0  0  0
  -10.6187  -11.6989    9.4804 F   0  0  0  0  0  0  0  0  0  0  0  0
  -10.7645   -9.7354   10.8224 C   0  0  0  0  0  0  0  0  0  0  0  0
  -10.2206   -8.8961   11.8001 C   0  0  0  0  0  0  0  0  0  0  0  0
  -10.8944   -7.7742   12.1528 F   0  0  0  0  0  0  0  0  0  0  0  0
   -5.9573   -8.0835   13.2633 C   0  0  0  0  0  0  0  0  0  0  0  0
   -6.1517   -7.0511   12.5621 O   0  0  0  0  0  0  0  0  0  0  0  0
  1  2  1  6
  2  3  1  0
  3  4  2  3
  4  5  1  0
  5  6  1  0
  4  7  1  0
  7  8  1  0
  8  9  1  0
  9 10  2  0
  9 11  1  0
 11 12  2  0
 12 13  1  0
 13 14  1  0
 14 15  2  0
 15 16  1  0
 16 17  2  0
 17 18  1  0
 19 18  1  1
 18 20  1  0
 20 21  2  0
 21 22  1  0
 22 23  2  0
 23 24  1  0
 12 25  1  0
 26 25  1  6
 26 27  1  0
 27 28  2  0
 28 29  1  0
 29 30  1  0
 29 31  2  0
 31 32  1  0
 31 33  1  0
 33 34  2  0
 34 35  1  0
 25 36  1  0
 36 37  2  0
 36  8  1  0
 23 14  1  0
 34 27  1  0
 21 16  1  0
M  END
$$$$
