_rank5
     RDKit          3D

 37 40  0  0  0  0  0  0  0  0999 V2000
   -3.9982  -13.5309   11.4978 C   0  0  0  0  0  0  0  0  0  0  0  0
   -4.0505  -12.0928   11.7354 N   0  0  0  0  0  0  0  0  0  0  0  0
   -4.0018  -11.1838   10.6654 N   0  0  0  0  0  0  0  0  0  0  0  0
   -3.6986   -9.9225   10.7852 C   0  0  0  0  0  0  0  0  0  0  0  0
   -2.3368   -9.4736   10.7841 N   0  0  0  0  0  0  0  0  0  0  0  0
   -1.3013   -9.4280    9.1948 Br  0  0  0  0  0  0  0  0  0  0  0  0
   -4.7471   -8.9537   10.9318 N   0  0  0  0  0  0  0  0  0  0  0  0
   -6.0965   -9.3236   11.1125 N   0  0  0  0  0  0  0  0  0  0  0  0
   -6.7784   -9.9686   10.1260 C   0  0  0  0  0  0  0  0  0  0  0  0
   -6.2210  -10.2416    9.0293 O   0  0  0  0  0  0  0  0  0  0  0  0
   -8.0696  -10.3132   10.3142 N   0  0  0  0  0  0  0  0  0  0  0  0
   -8.7233   -9.9948   11.4582 C   0  0  0  0  0  0  0  0  0  0  0  0
  -10.0725  -10.4623   11.6284 N   0  0  0  0  0  0  0  0  0  0  0  0
  -10.7226  -11.3309   10.6836 C   0  0  0  0  0  0  0  0  0  0  0  0
  -10.1071  -12.5364   10.2670 C   0  0  0  0  0  0  0  0  0  0  0  0
  -10.7733  -13.3158    9.3282 C   0  0  0  0  0  0  0  0  0  0  0  0
  -10.4541  -14.5121    8.7319 C   0  0  0  0  0  0  0  0  0  0  0  0
  -11.4665  -14.8144    7.8853 N   0  0  0  0  0  0  0  0  0  0  0  0
  -11.5721  -16.0311    7.0944 C   0  0  0  0  0  0  0  0  0  0  0  0
  -12.4122  -13.8820    7.9303 N   0  0  0  0  0  0  0  0  0  0  0  0
  -11.9855  -12.9568    8.8098 C   0  0  0  0  0  0  0  0  0  0  0  0
  -12.6215  -11.7796    9.1851 C   0  0  0  0  0  0  0  0  0  0  0  0
  -11.9759  -10.9543   10.1259 C   0  0  0  0  0  0  0  0  0  0  0  0
  -12.5760   -9.7991   10.5098 F   0  0  0  0  0  0  0  0  0  0  0  0
   -8.0723   -9.2885   12.4416 N   0  0  0  0  0  0  0  0  0  0  0  0
   -8.7765   -8.7954   13.6471 C   0  0  0  0  0  0  0  0  0  0  0  0
   -9.4027   -7.4461   13.3866 C   0  0  0  0  0  0  0  0  0  0  0  0
   -9.3356   -6.8718   12.1049 C   0  0  0  0  0  0  0  0  0  0  0  0
   -9.9402   -5.6371   11.8488 C   0  0  0  0  0  0  0  0  0  0  0  0
   -9.8736   -5.0955   10.6070 F   0  0  0  0  0  0  0  0  0  0  0  0
  -10.6150   -4.9634   12.8701 C   0  0  0  0  0  0  0  0  0  0  0  0
  -11.2063   -3.7681   12.6234 F   0  0  0  0  0  0  0  0  0  0  0  0
  -10.6812   -5.5217   14.1487 C   0  0  0  0  0  0  0  0  0  0  0  0
  -10.0784   -6.7563   14.4105 C   0  0  0  0  0  0  0  0  0  0  0  0
  -10.1412   -7.2663   15.6647 F   0  0  0  0  0  0  0  0  0  0  0  0
   -6.7471   -8.9715   12.2600 C   0  0  0  0  0  0  0  0  0  0  0  0
   -6.1137   -8.3550   13.1624 O   0  0  0  0  0  0  0  0  0  0  0  0
  1  2  1  6
  2  3  1  0
  3  4  2  3
  4  5  1  0
  5  6  1  0
  4  7  1  0
  7  8  1  0
  8  9  1  0
  9 10  2  0
  9 11  1  0
 11 12  2  0
 12 13  1  0
 13 14  1  0
 14 15  2  0
 15 16  1  0
 16 17  2  0
 17 18  1  0
 19 18  1  1
 18 20  1  0
 20 21  2  0
 21 22  1  0
 22 23  2  0
 23 24  1  0
 12 25  1  0
 26 25  1  6
 26 27  1  0
 27 28  2  0
 28 29  1  0
 29 30  1  0
 29 31  2  0
 31 32  1  0
 31 33  1  0
 33 34  2  0
 34 35  1  0
 25 36  1  0
 36 37  2  0
 36  8  1  0
 23 14  1  0
 34 27  1  0
 21 16  1  0
M  END
$$$$
