_rank14
     RDKit          3D

 37 40  0  0  0  0  0  0  0  0999 V2000
   -4.8423   -7.0581   13.0335 C   0  0  0  0  0  0  0  0  0  0  0  0
   -3.8435   -7.8424   12.3161 N   0  0  0  0  0  0  0  0  0  0  0  0
   -3.8750   -7.9403   10.9150 N   0  0  0  0  0  0  0  0  0  0  0  0
   -3.7118   -9.0496   10.2516 C   0  0  0  0  0  0  0  0  0  0  0  0
   -3.4373   -9.0501    8.8443 N   0  0  0  0  0  0  0  0  0  0  0  0
   -1.7500   -8.5219    8.1554 Br  0  0  0  0  0  0  0  0  0  0  0  0
   -3.8171  -10.3059   10.9371 N   0  0  0  0  0  0  0  0  0  0  0  0
   -4.9934  -10.7039   11.6069 N   0  0  0  0  0  0  0  0  0  0  0  0
   -4.9716  -11.7348   12.4963 C   0  0  0  0  0  0  0  0  0  0  0  0
   -3.9031  -12.3592   12.7335 O   0  0  0  0  0  0  0  0  0  0  0  0
   -6.1063  -12.1045   13.1266 N   0  0  0  0  0  0  0  0  0  0  0  0
   -7.2878  -11.4940   12.8644 C   0  0  0  0  0  0  0  0  0  0  0  0
   -8.4426  -11.8804   13.6294 N   0  0  0  0  0  0  0  0  0  0  0  0
   -8.3508  -12.6033   14.8698 C   0  0  0  0  0  0  0  0  0  0  0  0
   -7.2405  -12.4246   15.7307 C   0  0  0  0  0  0  0  0  0  0  0  0
   -7.1966  -13.1762   16.8995 C   0  0  0  0  0  0  0  0  0  0  0  0
   -6.2797  -13.2360   17.9213 C   0  0  0  0  0  0  0  0  0  0  0  0
   -6.7372  -14.1491   18.8101 N   0  0  0  0  0  0  0  0  0  0  0  0
   -6.1085  -14.4820   20.0793 C   0  0  0  0  0  0  0  0  0  0  0  0
   -7.9000  -14.6533   18.4107 N   0  0  0  0  0  0  0  0  0  0  0  0
   -8.1807  -14.0632   17.2340 C   0  0  0  0  0  0  0  0  0  0  0  0
   -9.2835  -14.2748   16.4154 C   0  0  0  0  0  0  0  0  0  0  0  0
   -9.3622  -13.5420   15.2155 C   0  0  0  0  0  0  0  0  0  0  0  0
  -10.4294  -13.7296   14.3983 F   0  0  0  0  0  0  0  0  0  0  0  0
   -7.3442  -10.4929   11.9239 N   0  0  0  0  0  0  0  0  0  0  0  0
   -8.6281   -9.8898   11.4995 C   0  0  0  0  0  0  0  0  0  0  0  0
   -8.9929   -8.7261   12.3902 C   0  0  0  0  0  0  0  0  0  0  0  0
   -8.2131   -8.4315   13.5226 C   0  0  0  0  0  0  0  0  0  0  0  0
   -8.5268   -7.3366   14.3341 C   0  0  0  0  0  0  0  0  0  0  0  0
   -7.7640   -7.0591   15.4208 F   0  0  0  0  0  0  0  0  0  0  0  0
   -9.6229   -6.5275   14.0241 C   0  0  0  0  0  0  0  0  0  0  0  0
   -9.9266   -5.4623   14.8066 F   0  0  0  0  0  0  0  0  0  0  0  0
  -10.4083   -6.8157   12.9057 C   0  0  0  0  0  0  0  0  0  0  0  0
  -10.0992   -7.9093   12.0905 C   0  0  0  0  0  0  0  0  0  0  0  0
  -10.8892   -8.1778   11.0224 F   0  0  0  0  0  0  0  0  0  0  0  0
   -6.1795  -10.0959   11.3111 C   0  0  0  0  0  0  0  0  0  0  0  0
   -6.1955   -9.1540   10.4698 O   0  0  0  0  0  0  0  0  0  0  0  0
  1  2  1  6
  2  3  1  0
  3  4  2  3
  4  5  1  0
  5  6  1  0
  4  7  1  0
  7  8  1  0
  8  9  1  0
  9 10  2  0
  9 11  1  0
 11 12  2  0
 12 13  1  0
 13 14  1  0
 14 15  2  0
 15 16  1  0
 16 17  2  0
 17 18  1  0
 19 18  1  1
 18 20  1  0
 20 21  2  0
 21 22  1  0
 22 23  2  0
 23 24  1  0
 12 25  1  0
 26 25  1  6
 26 27  1  0
 27 28  2  0
 28 29  1  0
 29 30  1  0
 29 31  2  0
 31 32  1  0
 31 33  1  0
 33 34  2  0
 34 35  1  0
 25 36  1  0
 36 37  2  0
 36  8  1  0
 23 14  1  0
 34 27  1  0
 21 16  1  0
M  END
$$$$
