_rank17
     RDKit          3D

 37 40  0  0  0  0  0  0  0  0999 V2000
   -6.1811   -5.1330   12.0391 C   0  0  0  0  0  0  0  0  0  0  0  0
   -5.2433   -5.7155   11.0860 N   0  0  0  0  0  0  0  0  0  0  0  0
   -5.2223   -7.1004   10.8508 N   0  0  0  0  0  0  0  0  0  0  0  0
   -4.1373   -7.8010   10.6807 C   0  0  0  0  0  0  0  0  0  0  0  0
   -3.1162   -7.3935    9.7602 N   0  0  0  0  0  0  0  0  0  0  0  0
   -1.8720   -8.6299    9.0367 Br  0  0  0  0  0  0  0  0  0  0  0  0
   -3.9564   -9.0164   11.4220 N   0  0  0  0  0  0  0  0  0  0  0  0
   -4.8283   -9.4031   12.4616 N   0  0  0  0  0  0  0  0  0  0  0  0
   -4.5781  -10.5202   13.1990 C   0  0  0  0  0  0  0  0  0  0  0  0
   -3.5676  -11.2353   12.9634 O   0  0  0  0  0  0  0  0  0  0  0  0
   -5.4237  -10.8775   14.1883 N   0  0  0  0  0  0  0  0  0  0  0  0
   -6.5491  -10.1661   14.4432 C   0  0  0  0  0  0  0  0  0  0  0  0
   -7.3643  -10.5527   15.5630 N   0  0  0  0  0  0  0  0  0  0  0  0
   -7.4379  -11.9065   16.0442 C   0  0  0  0  0  0  0  0  0  0  0  0
   -7.1757  -12.9968   15.1793 C   0  0  0  0  0  0  0  0  0  0  0  0
   -7.2942  -14.2812   15.6980 C   0  0  0  0  0  0  0  0  0  0  0  0
   -7.1125  -15.5216   15.1351 C   0  0  0  0  0  0  0  0  0  0  0  0
   -7.3688  -16.4354   16.1006 N   0  0  0  0  0  0  0  0  0  0  0  0
   -7.2337  -17.8770   15.9573 C   0  0  0  0  0  0  0  0  0  0  0  0
   -7.6847  -15.8363   17.2439 N   0  0  0  0  0  0  0  0  0  0  0  0
   -7.6471  -14.5137   16.9975 C   0  0  0  0  0  0  0  0  0  0  0  0
   -7.9200  -13.4740   17.8782 C   0  0  0  0  0  0  0  0  0  0  0  0
   -7.8227  -12.1564   17.3907 C   0  0  0  0  0  0  0  0  0  0  0  0
   -8.0836  -11.1227   18.2306 F   0  0  0  0  0  0  0  0  0  0  0  0
   -6.8534   -9.0710   13.6699 N   0  0  0  0  0  0  0  0  0  0  0  0
   -8.1348   -8.3433   13.8142 C   0  0  0  0  0  0  0  0  0  0  0  0
   -9.1337   -8.8089   12.7818 C   0  0  0  0  0  0  0  0  0  0  0  0
   -8.8636   -9.9458   11.9997 C   0  0  0  0  0  0  0  0  0  0  0  0
   -9.7978  -10.4008   11.0638 C   0  0  0  0  0  0  0  0  0  0  0  0
   -9.5283  -11.5019   10.3190 F   0  0  0  0  0  0  0  0  0  0  0  0
  -11.0087   -9.7237   10.8983 C   0  0  0  0  0  0  0  0  0  0  0  0
  -11.9185  -10.1655    9.9947 F   0  0  0  0  0  0  0  0  0  0  0  0
  -11.2838   -8.5891   11.6648 C   0  0  0  0  0  0  0  0  0  0  0  0
  -10.3532   -8.1297   12.6025 C   0  0  0  0  0  0  0  0  0  0  0  0
  -10.6372   -7.0151   13.3195 F   0  0  0  0  0  0  0  0  0  0  0  0
   -5.9708   -8.6905   12.6872 C   0  0  0  0  0  0  0  0  0  0  0  0
   -6.2066   -7.6671   11.9855 O   0  0  0  0  0  0  0  0  0  0  0  0
  1  2  1  6
  2  3  1  0
  3  4  2  3
  4  5  1  0
  5  6  1  0
  4  7  1  0
  7  8  1  0
  8  9  1  0
  9 10  2  0
  9 11  1  0
 11 12  2  0
 12 13  1  0
 13 14  1  0
 14 15  2  0
 15 16  1  0
 16 17  2  0
 17 18  1  0
 19 18  1  1
 18 20  1  0
 20 21  2  0
 21 22  1  0
 22 23  2  0
 23 24  1  0
 12 25  1  0
 26 25  1  6
 26 27  1  0
 27 28  2  0
 28 29  1  0
 29 30  1  0
 29 31  2  0
 31 32  1  0
 31 33  1  0
 33 34  2  0
 34 35  1  0
 25 36  1  0
 36 37  2  0
 36  8  1  0
 23 14  1  0
 34 27  1  0
 21 16  1  0
M  END
$$$$
