_rank5
     RDKit          3D

 26 28  0  0  0  0  0  0  0  0999 V2000
   28.0823   -1.8678   -8.6951 C   0  0  0  0  0  0  0  0  0  0  0  0
   27.4275   -0.1961   -8.6195 S   0  0  1  0  0  6  0  0  0  0  0  0
   27.0951    0.0360   -7.1640 O   0  0  0  0  0  0  0  0  0  0  0  0
   28.4453    0.7592   -9.1205 O   0  0  0  0  0  0  0  0  0  0  0  0
   25.9603   -0.1959   -9.5622 C   0  0  0  0  0  0  0  0  0  0  0  0
   24.7061   -0.3752   -9.0137 C   0  0  0  0  0  0  0  0  0  0  0  0
   23.5828   -0.3631   -9.8140 C   0  0  0  0  0  0  0  0  0  0  0  0
   23.6704   -0.1719  -11.1882 C   0  0  0  0  0  0  0  0  0  0  0  0
   22.5304   -0.1606  -11.9934 O   0  0  0  0  0  0  0  0  0  0  0  0
   21.3213   -0.4478  -11.3816 C   0  0  0  0  0  0  0  0  0  0  0  0
   20.7996   -1.7040  -11.5361 C   0  0  0  0  0  0  0  0  0  0  0  0
   19.5955   -1.9884  -10.9262 C   0  0  0  0  0  0  0  0  0  0  0  0
   19.0810   -3.2269  -11.0784 F   0  0  0  0  0  0  0  0  0  0  0  0
   18.9443   -1.0270  -10.1843 C   0  0  0  0  0  0  0  0  0  0  0  0
   19.4651    0.2401  -10.0253 C   0  0  0  0  0  0  0  0  0  0  0  0
   18.7569    1.2326   -9.2380 C   0  0  0  0  0  0  0  0  0  0  0  0
   18.2078    2.0235   -8.5981 N   0  0  0  0  0  0  0  0  0  0  0  0
   20.6698    0.5151  -10.6390 C   0  0  0  0  0  0  0  0  0  0  0  0
   24.9317    0.0044  -11.7097 C   0  0  0  0  0  0  0  0  0  0  0  0
   26.0609   -0.0054  -10.9240 C   0  0  0  0  0  0  0  0  0  0  0  0
   27.2215    0.2043  -11.7937 C   0  0  2  0  0  0  0  0  0  0  0  0
   28.2197    0.9994  -11.2432 O   0  0  0  0  0  0  0  0  0  0  0  0
   26.6912    0.8412  -13.0525 C   0  0  2  0  0  0  0  0  0  0  0  0
   27.3808    0.4269  -14.1744 F   0  0  0  0  0  0  0  0  0  0  0  0
   26.5927    2.1971  -12.9843 F   0  0  0  0  0  0  0  0  0  0  0  0
   25.3030    0.2300  -13.1480 C   0  0  0  0  0  0  0  0  0  0  0  0
  1  2  1  1
  2  3  2  0
  2  4  2  0
  2  5  1  6
  5  6  2  0
  6  7  1  0
  7  8  2  0
  8  9  1  0
  9 10  1  0
 10 11  2  0
 11 12  1  0
 12 13  1  0
 12 14  2  0
 14 15  1  0
 15 16  1  0
 16 17  3  0
 15 18  2  0
  8 19  1  0
 19 20  2  0
 20 21  1  0
 21 22  1  1
 21 23  1  0
 23 24  1  6
 23 25  1  0
 23 26  1  0
 20  5  1  0
 18 10  1  0
 26 19  1  1
M  END
$$$$
