_rank16
     RDKit          3D

 26 28  0  0  0  0  0  0  0  0999 V2000
   27.1221   -0.5000   -7.1950 C   0  0  0  0  0  0  0  0  0  0  0  0
   27.4351    0.2039   -8.8185 S   0  0  1  0  0  6  0  0  0  0  0  0
   27.5698    1.6911   -8.5887 O   0  0  0  0  0  0  0  0  0  0  0  0
   28.6700   -0.3888   -9.3872 O   0  0  0  0  0  0  0  0  0  0  0  0
   26.0141   -0.1139   -9.7783 C   0  0  0  0  0  0  0  0  0  0  0  0
   24.7925   -0.4576   -9.2343 C   0  0  0  0  0  0  0  0  0  0  0  0
   23.7047   -0.6952  -10.0483 C   0  0  0  0  0  0  0  0  0  0  0  0
   23.7964   -0.5986  -11.4321 C   0  0  0  0  0  0  0  0  0  0  0  0
   22.6924   -0.8401  -12.2511 O   0  0  0  0  0  0  0  0  0  0  0  0
   21.4474   -0.8622  -11.6440 C   0  0  0  0  0  0  0  0  0  0  0  0
   20.5016   -1.7201  -12.1372 C   0  0  0  0  0  0  0  0  0  0  0  0
   19.2624   -1.7409  -11.5316 C   0  0  0  0  0  0  0  0  0  0  0  0
   18.3297   -2.5867  -12.0177 F   0  0  0  0  0  0  0  0  0  0  0  0
   18.9949   -0.9165  -10.4604 C   0  0  0  0  0  0  0  0  0  0  0  0
   19.9439   -0.0502   -9.9593 C   0  0  0  0  0  0  0  0  0  0  0  0
   19.6339    0.8066   -8.8296 C   0  0  0  0  0  0  0  0  0  0  0  0
   19.3816    1.5034   -7.9424 N   0  0  0  0  0  0  0  0  0  0  0  0
   21.1803   -0.0366  -10.5716 C   0  0  0  0  0  0  0  0  0  0  0  0
   25.0247   -0.2546  -11.9488 C   0  0  0  0  0  0  0  0  0  0  0  0
   26.1183   -0.0148  -11.1495 C   0  0  0  0  0  0  0  0  0  0  0  0
   27.2511    0.3182  -12.0173 C   0  0  2  0  0  0  0  0  0  0  0  0
   28.0888    1.3091  -11.5189 O   0  0  0  0  0  0  0  0  0  0  0  0
   26.6568    0.7585  -13.3304 C   0  0  2  0  0  0  0  0  0  0  0  0
   27.4355    0.3801  -14.4057 F   0  0  0  0  0  0  0  0  0  0  0  0
   26.3333    2.0800  -13.3729 F   0  0  0  0  0  0  0  0  0  0  0  0
   25.3921   -0.0817  -13.3953 C   0  0  0  0  0  0  0  0  0  0  0  0
  1  2  1  1
  2  3  2  0
  2  4  2  0
  2  5  1  6
  5  6  2  0
  6  7  1  0
  7  8  2  0
  8  9  1  0
  9 10  1  0
 10 11  2  0
 11 12  1  0
 12 13  1  0
 12 14  2  0
 14 15  1  0
 15 16  1  0
 16 17  3  0
 15 18  2  0
  8 19  1  0
 19 20  2  0
 20 21  1  0
 21 22  1  1
 21 23  1  0
 23 24  1  6
 23 25  1  0
 23 26  1  0
 20  5  1  0
 18 10  1  0
 26 19  1  1
M  END
$$$$
