_rank15
     RDKit          3D

 25 27  0  0  0  0  0  0  0  0999 V2000
   24.5211   -1.2368  -12.9673 O   0  0  0  0  0  0  0  0  0  0  0  0
   23.3499   -0.7880  -12.8455 N   0  0  0  0  0  4  0  0  0  0  0  0
   22.8074    0.0229  -13.7987 O   0  0  0  0  0  1  0  0  0  0  0  0
   22.5685   -1.1192  -11.7076 C   0  0  0  0  0  0  0  0  0  0  0  0
   23.1746   -1.6486  -10.5939 C   0  0  0  0  0  0  0  0  0  0  0  0
   24.5972   -1.8830  -10.5595 N   0  0  0  0  0  0  0  0  0  0  0  0
   25.2181   -1.9710   -9.2619 C   0  0  0  0  0  0  0  0  0  0  0  0
   25.7861   -0.6883   -8.8130 C   0  0  0  0  0  0  0  0  0  0  0  0
   24.9082    0.3515   -8.4751 C   0  0  0  0  0  0  0  0  0  0  0  0
   25.3808    1.5657   -8.0329 C   0  0  0  0  0  0  0  0  0  0  0  0
   26.7457    1.7244   -7.9338 C   0  0  0  0  0  0  0  0  0  0  0  0
   27.2134    2.9222   -7.4980 F   0  0  0  0  0  0  0  0  0  0  0  0
   27.6151    0.7060   -8.2648 C   0  0  0  0  0  0  0  0  0  0  0  0
   27.1470   -0.5335   -8.7161 C   0  0  0  0  0  0  0  0  0  0  0  0
   28.0902   -1.6082   -9.0823 C   0  0  1  0  0  0  0  0  0  0  0  0
   27.8832   -2.6985   -8.2233 F   0  0  0  0  0  0  0  0  0  0  0  0
   27.9093   -2.1182  -10.3462 F   0  0  0  0  0  0  0  0  0  0  0  0
   29.4064   -1.2448   -8.8810 F   0  0  0  0  0  0  0  0  0  0  0  0
   22.3801   -1.9542   -9.5086 C   0  0  0  0  0  0  0  0  0  0  0  0
   21.0325   -1.7352   -9.5460 C   0  0  0  0  0  0  0  0  0  0  0  0
   20.4042   -1.2098  -10.6415 C   0  0  0  0  0  0  0  0  0  0  0  0
   19.1501   -0.8855  -10.9840 N   0  0  0  0  0  0  0  0  0  0  0  0
   19.1389   -0.4024  -12.2105 O   0  0  0  0  0  0  0  0  0  0  0  0
   20.3498   -0.4089  -12.6609 N   0  0  0  0  0  0  0  0  0  0  0  0
   21.2133   -0.9057  -11.7282 C   0  0  0  0  0  0  0  0  0  0  0  0
  1  2  2  0
  2  3  1  0
  2  4  1  0
  4  5  2  0
  5  6  1  0
  7  6  1  6
  7  8  1  0
  8  9  2  0
  9 10  1  0
 10 11  2  0
 11 12  1  0
 11 13  1  0
 13 14  2  0
 14 15  1  0
 15 16  1  1
 15 17  1  0
 15 18  1  0
  5 19  1  0
 19 20  2  0
 20 21  1  0
 21 22  2  0
 22 23  1  0
 23 24  1  0
 24 25  2  0
 25  4  1  0
 14  8  1  0
 25 21  1  0
M  CHG  2   2   1   3  -1
M  END
$$$$
