_rank17
     RDKit          3D

 25 27  0  0  0  0  0  0  0  0999 V2000
   25.2966   -0.4923  -13.1252 O   0  0  0  0  0  0  0  0  0  0  0  0
   26.1142   -0.1402  -12.2334 N   0  0  0  0  0  4  0  0  0  0  0  0
   27.3236    0.3970  -12.5640 O   0  0  0  0  0  1  0  0  0  0  0  0
   25.7909   -0.2970  -10.8601 C   0  0  0  0  0  0  0  0  0  0  0  0
   24.6241   -0.9276  -10.5012 C   0  0  0  0  0  0  0  0  0  0  0  0
   23.7113   -1.4307  -11.4980 N   0  0  0  0  0  0  0  0  0  0  0  0
   22.5844   -2.1978  -11.0304 C   0  0  0  0  0  0  0  0  0  0  0  0
   21.4536   -1.3527  -10.6103 C   0  0  0  0  0  0  0  0  0  0  0  0
   20.9485   -1.5067   -9.3114 C   0  0  0  0  0  0  0  0  0  0  0  0
   19.9051   -0.7330   -8.8578 C   0  0  0  0  0  0  0  0  0  0  0  0
   19.3740    0.1977   -9.7238 C   0  0  0  0  0  0  0  0  0  0  0  0
   18.3440    0.9616   -9.2775 F   0  0  0  0  0  0  0  0  0  0  0  0
   19.8657    0.3544  -11.0028 C   0  0  0  0  0  0  0  0  0  0  0  0
   20.9265   -0.4266  -11.4762 C   0  0  0  0  0  0  0  0  0  0  0  0
   21.4309   -0.2587  -12.8531 C   0  0  1  0  0  0  0  0  0  0  0  0
   20.3976   -0.5698  -13.7504 F   0  0  0  0  0  0  0  0  0  0  0  0
   21.7973    1.0275  -13.1723 F   0  0  0  0  0  0  0  0  0  0  0  0
   22.4415   -1.1487  -13.1559 F   0  0  0  0  0  0  0  0  0  0  0  0
   24.3484   -1.0620   -9.1564 C   0  0  0  0  0  0  0  0  0  0  0  0
   25.2128   -0.5804   -8.2149 C   0  0  0  0  0  0  0  0  0  0  0  0
   26.3803    0.0512   -8.5448 C   0  0  0  0  0  0  0  0  0  0  0  0
   27.4027    0.6157   -7.8880 N   0  0  0  0  0  0  0  0  0  0  0  0
   28.2794    1.0828   -8.7546 O   0  0  0  0  0  0  0  0  0  0  0  0
   27.8461    0.8328   -9.9459 N   0  0  0  0  0  0  0  0  0  0  0  0
   26.6480    0.1809   -9.9011 C   0  0  0  0  0  0  0  0  0  0  0  0
  1  2  2  0
  2  3  1  0
  2  4  1  0
  4  5  2  0
  5  6  1  0
  7  6  1  6
  7  8  1  0
  8  9  2  0
  9 10  1  0
 10 11  2  0
 11 12  1  0
 11 13  1  0
 13 14  2  0
 14 15  1  0
 15 16  1  6
 15 17  1  0
 15 18  1  0
  5 19  1  0
 19 20  2  0
 20 21  1  0
 21 22  2  0
 22 23  1  0
 23 24  1  0
 24 25  2  0
 25  4  1  0
 14  8  1  0
 25 21  1  0
M  CHG  2   2   1   3  -1
M  END
$$$$
