_rank5
     RDKit          3D

 25 27  0  0  0  0  0  0  0  0999 V2000
   25.4400    0.5288  -13.0372 O   0  0  0  0  0  0  0  0  0  0  0  0
   26.2238    0.4220  -12.0563 N   0  0  0  0  0  4  0  0  0  0  0  0
   27.5658    0.6135  -12.2074 O   0  0  0  0  0  1  0  0  0  0  0  0
   25.7226    0.0983  -10.7683 C   0  0  0  0  0  0  0  0  0  0  0  0
   24.4100   -0.2808  -10.6220 C   0  0  0  0  0  0  0  0  0  0  0  0
   23.5230   -0.3502  -11.7570 N   0  0  0  0  0  0  0  0  0  0  0  0
   22.2310    0.2738  -11.6211 C   0  0  0  0  0  0  0  0  0  0  0  0
   21.1706   -0.6826  -11.2602 C   0  0  0  0  0  0  0  0  0  0  0  0
   21.3336   -2.0291  -11.6155 C   0  0  0  0  0  0  0  0  0  0  0  0
   20.3845   -2.9705  -11.2895 C   0  0  0  0  0  0  0  0  0  0  0  0
   19.2691   -2.5443  -10.6023 C   0  0  0  0  0  0  0  0  0  0  0  0
   18.3316   -3.4722  -10.2804 F   0  0  0  0  0  0  0  0  0  0  0  0
   19.1021   -1.2214  -10.2497 C   0  0  0  0  0  0  0  0  0  0  0  0
   20.0600   -0.2542  -10.5758 C   0  0  0  0  0  0  0  0  0  0  0  0
   19.8595    1.1607  -10.2061 C   0  0  1  0  0  0  0  0  0  0  0  0
   19.1209    1.7889  -11.2208 F   0  0  0  0  0  0  0  0  0  0  0  0
   19.1185    1.3511   -9.0637 F   0  0  0  0  0  0  0  0  0  0  0  0
   21.0463    1.8627  -10.1467 F   0  0  0  0  0  0  0  0  0  0  0  0
   23.9631   -0.5895   -9.3541 C   0  0  0  0  0  0  0  0  0  0  0  0
   24.8046   -0.5185   -8.2807 C   0  0  0  0  0  0  0  0  0  0  0  0
   26.1149   -0.1440   -8.3984 C   0  0  0  0  0  0  0  0  0  0  0  0
   27.1597    0.0198   -7.5757 N   0  0  0  0  0  0  0  0  0  0  0  0
   28.2108    0.4088   -8.2699 O   0  0  0  0  0  0  0  0  0  0  0  0
   27.8670    0.4980   -9.5121 N   0  0  0  0  0  0  0  0  0  0  0  0
   26.5542    0.1645   -9.6789 C   0  0  0  0  0  0  0  0  0  0  0  0
  1  2  2  0
  2  3  1  0
  2  4  1  0
  4  5  2  0
  5  6  1  0
  7  6  1  6
  7  8  1  0
  8  9  2  0
  9 10  1  0
 10 11  2  0
 11 12  1  0
 11 13  1  0
 13 14  2  0
 14 15  1  0
 15 16  1  6
 15 17  1  0
 15 18  1  0
  5 19  1  0
 19 20  2  0
 20 21  1  0
 21 22  2  0
 22 23  1  0
 23 24  1  0
 24 25  2  0
 25  4  1  0
 14  8  1  0
 25 21  1  0
M  CHG  2   2   1   3  -1
M  END
$$$$
