_rank6
     RDKit          3D

 25 27  0  0  0  0  0  0  0  0999 V2000
   25.5011    0.6356  -13.0656 O   0  0  0  0  0  0  0  0  0  0  0  0
   26.3197    0.5419  -12.1122 N   0  0  0  0  0  4  0  0  0  0  0  0
   27.6609    0.6697  -12.3249 O   0  0  0  0  0  1  0  0  0  0  0  0
   25.8593    0.2999  -10.7914 C   0  0  0  0  0  0  0  0  0  0  0  0
   24.5188    0.1058  -10.5605 C   0  0  0  0  0  0  0  0  0  0  0  0
   23.5623    0.1502  -11.6389 N   0  0  0  0  0  0  0  0  0  0  0  0
   22.2687    0.7150  -11.3479 C   0  0  0  0  0  0  0  0  0  0  0  0
   21.2316   -0.3105  -11.1423 C   0  0  0  0  0  0  0  0  0  0  0  0
   21.4583   -1.6017  -11.6397 C   0  0  0  0  0  0  0  0  0  0  0  0
   20.5331   -2.6046  -11.4624 C   0  0  0  0  0  0  0  0  0  0  0  0
   19.3769   -2.2962  -10.7796 C   0  0  0  0  0  0  0  0  0  0  0  0
   18.4630   -3.2849  -10.6044 F   0  0  0  0  0  0  0  0  0  0  0  0
   19.1473   -1.0283  -10.2879 C   0  0  0  0  0  0  0  0  0  0  0  0
   20.0803    0.0006  -10.4619 C   0  0  0  0  0  0  0  0  0  0  0  0
   19.8130    1.3568   -9.9442 C   0  0  1  0  0  0  0  0  0  0  0  0
   18.5698    1.3512   -9.2929 F   0  0  0  0  0  0  0  0  0  0  0  0
   20.7058    1.7889   -8.9921 F   0  0  0  0  0  0  0  0  0  0  0  0
   19.6789    2.2887  -10.9534 F   0  0  0  0  0  0  0  0  0  0  0  0
   24.1130   -0.1290   -9.2633 C   0  0  0  0  0  0  0  0  0  0  0  0
   25.0209   -0.1660   -8.2436 C   0  0  0  0  0  0  0  0  0  0  0  0
   26.3602    0.0241   -8.4457 C   0  0  0  0  0  0  0  0  0  0  0  0
   27.4664    0.0491   -7.6900 N   0  0  0  0  0  0  0  0  0  0  0  0
   28.5159    0.2847   -8.4522 O   0  0  0  0  0  0  0  0  0  0  0  0
   28.1116    0.4109   -9.6728 N   0  0  0  0  0  0  0  0  0  0  0  0
   26.7578    0.2595   -9.7551 C   0  0  0  0  0  0  0  0  0  0  0  0
  1  2  2  0
  2  3  1  0
  2  4  1  0
  4  5  2  0
  5  6  1  0
  7  6  1  6
  7  8  1  0
  8  9  2  0
  9 10  1  0
 10 11  2  0
 11 12  1  0
 11 13  1  0
 13 14  2  0
 14 15  1  0
 15 16  1  1
 15 17  1  0
 15 18  1  0
  5 19  1  0
 19 20  2  0
 20 21  1  0
 21 22  2  0
 22 23  1  0
 23 24  1  0
 24 25  2  0
 25  4  1  0
 14  8  1  0
 25 21  1  0
M  CHG  2   2   1   3  -1
M  END
$$$$
