_rank11
     RDKit          3D

 25 27  0  0  0  0  0  0  0  0999 V2000
   21.7028    2.4220  -11.0500 O   0  0  0  0  0  0  0  0  0  0  0  0
   22.3924    1.4231  -11.3885 N   0  0  0  0  0  4  0  0  0  0  0  0
   23.4967    1.5681  -12.1759 O   0  0  0  0  0  1  0  0  0  0  0  0
   22.0310    0.1206  -10.9550 C   0  0  0  0  0  0  0  0  0  0  0  0
   22.8415   -0.9479  -11.2542 C   0  0  0  0  0  0  0  0  0  0  0  0
   24.0566   -0.7731  -12.0111 N   0  0  0  0  0  0  0  0  0  0  0  0
   25.2271   -1.4743  -11.5471 C   0  0  0  0  0  0  0  0  0  0  0  0
   25.7817   -0.9016  -10.3086 C   0  0  0  0  0  0  0  0  0  0  0  0
   24.9941   -0.9239   -9.1488 C   0  0  0  0  0  0  0  0  0  0  0  0
   25.4660   -0.4195   -7.9588 C   0  0  0  0  0  0  0  0  0  0  0  0
   26.7386    0.1082   -7.9465 C   0  0  0  0  0  0  0  0  0  0  0  0
   27.2054    0.6067   -6.7730 F   0  0  0  0  0  0  0  0  0  0  0  0
   27.5188    0.1336   -9.0835 C   0  0  0  0  0  0  0  0  0  0  0  0
   27.0502   -0.3761  -10.3001 C   0  0  0  0  0  0  0  0  0  0  0  0
   27.8907   -0.3268  -11.5124 C   0  0  1  0  0  0  0  0  0  0  0  0
   29.0445    0.4199  -11.2281 F   0  0  0  0  0  0  0  0  0  0  0  0
   28.3588   -1.5500  -11.9308 F   0  0  0  0  0  0  0  0  0  0  0  0
   27.2797    0.3483  -12.5497 F   0  0  0  0  0  0  0  0  0  0  0  0
   22.4559   -2.1962  -10.8122 C   0  0  0  0  0  0  0  0  0  0  0  0
   21.3022   -2.3590  -10.0995 C   0  0  0  0  0  0  0  0  0  0  0  0
   20.4777   -1.3129   -9.7884 C   0  0  0  0  0  0  0  0  0  0  0  0
   19.3221   -1.1444   -9.1314 N   0  0  0  0  0  0  0  0  0  0  0  0
   18.9864    0.1303   -9.1496 O   0  0  0  0  0  0  0  0  0  0  0  0
   19.8944    0.7804   -9.7993 N   0  0  0  0  0  0  0  0  0  0  0  0
   20.8754   -0.0608  -10.2380 C   0  0  0  0  0  0  0  0  0  0  0  0
  1  2  2  0
  2  3  1  0
  2  4  1  0
  4  5  2  0
  5  6  1  0
  7  6  1  6
  7  8  1  0
  8  9  2  0
  9 10  1  0
 10 11  2  0
 11 12  1  0
 11 13  1  0
 13 14  2  0
 14 15  1  0
 15 16  1  1
 15 17  1  0
 15 18  1  0
  5 19  1  0
 19 20  2  0
 20 21  1  0
 21 22  2  0
 22 23  1  0
 23 24  1  0
 24 25  2  0
 25  4  1  0
 14  8  1  0
 25 21  1  0
M  CHG  2   2   1   3  -1
M  END
$$$$
