_rank19
     RDKit          3D

 25 27  0  0  0  0  0  0  0  0999 V2000
   25.9505    0.4431  -13.2005 O   0  0  0  0  0  0  0  0  0  0  0  0
   26.6846    0.3134  -12.1846 N   0  0  0  0  0  4  0  0  0  0  0  0
   28.0435    0.3658  -12.2906 O   0  0  0  0  0  1  0  0  0  0  0  0
   26.1086    0.1087  -10.9035 C   0  0  0  0  0  0  0  0  0  0  0  0
   24.7511   -0.0686  -10.7858 C   0  0  0  0  0  0  0  0  0  0  0  0
   23.8927   -0.0439  -11.9443 N   0  0  0  0  0  0  0  0  0  0  0  0
   22.5913    0.5546  -11.7859 C   0  0  0  0  0  0  0  0  0  0  0  0
   21.6736   -0.2776  -10.9891 C   0  0  0  0  0  0  0  0  0  0  0  0
   21.3770    0.1197   -9.6776 C   0  0  0  0  0  0  0  0  0  0  0  0
   20.5132   -0.6085   -8.8922 C   0  0  0  0  0  0  0  0  0  0  0  0
   19.9502   -1.7409   -9.4389 C   0  0  0  0  0  0  0  0  0  0  0  0
   19.0980   -2.4606   -8.6648 F   0  0  0  0  0  0  0  0  0  0  0  0
   20.2377   -2.1376  -10.7282 C   0  0  0  0  0  0  0  0  0  0  0  0
   21.1149   -1.4058  -11.5371 C   0  0  0  0  0  0  0  0  0  0  0  0
   21.4256   -1.8521  -12.9092 C   0  0  1  0  0  0  0  0  0  0  0  0
   21.2194   -0.7774  -13.7879 F   0  0  0  0  0  0  0  0  0  0  0  0
   22.7360   -2.2192  -13.1055 F   0  0  0  0  0  0  0  0  0  0  0  0
   20.5662   -2.8383  -13.3495 F   0  0  0  0  0  0  0  0  0  0  0  0
   24.2316   -0.2671   -9.5236 C   0  0  0  0  0  0  0  0  0  0  0  0
   25.0468   -0.2855   -8.4279 C   0  0  0  0  0  0  0  0  0  0  0  0
   26.4006   -0.1115   -8.5170 C   0  0  0  0  0  0  0  0  0  0  0  0
   27.4369   -0.0762   -7.6685 N   0  0  0  0  0  0  0  0  0  0  0  0
   28.5511    0.1315   -8.3417 O   0  0  0  0  0  0  0  0  0  0  0  0
   28.2559    0.2298   -9.5957 N   0  0  0  0  0  0  0  0  0  0  0  0
   26.9130    0.0874   -9.7921 C   0  0  0  0  0  0  0  0  0  0  0  0
  1  2  2  0
  2  3  1  0
  2  4  1  0
  4  5  2  0
  5  6  1  0
  7  6  1  6
  7  8  1  0
  8  9  2  0
  9 10  1  0
 10 11  2  0
 11 12  1  0
 11 13  1  0
 13 14  2  0
 14 15  1  0
 15 16  1  6
 15 17  1  0
 15 18  1  0
  5 19  1  0
 19 20  2  0
 20 21  1  0
 21 22  2  0
 22 23  1  0
 23 24  1  0
 24 25  2  0
 25  4  1  0
 14  8  1  0
 25 21  1  0
M  CHG  2   2   1   3  -1
M  END
$$$$
