_rank8
     RDKit          3D

 25 27  0  0  0  0  0  0  0  0999 V2000
   27.3813    0.3602  -12.3375 O   0  0  0  0  0  0  0  0  0  0  0  0
   26.1293    0.3816  -12.1961 N   0  0  0  0  0  4  0  0  0  0  0  0
   25.3102    0.6756  -13.2464 O   0  0  0  0  0  1  0  0  0  0  0  0
   25.5441    0.0989  -10.9341 C   0  0  0  0  0  0  0  0  0  0  0  0
   24.1763    0.0851  -10.8036 C   0  0  0  0  0  0  0  0  0  0  0  0
   23.3171    0.3609  -11.9286 N   0  0  0  0  0  0  0  0  0  0  0  0
   22.1941   -0.5197  -12.1299 C   0  0  0  0  0  0  0  0  0  0  0  0
   20.9968   -0.0972  -11.3832 C   0  0  0  0  0  0  0  0  0  0  0  0
   20.6242    1.2539  -11.4237 C   0  0  0  0  0  0  0  0  0  0  0  0
   19.5056    1.7032  -10.7602 C   0  0  0  0  0  0  0  0  0  0  0  0
   18.7650    0.7800  -10.0550 C   0  0  0  0  0  0  0  0  0  0  0  0
   17.6613    1.2222   -9.3995 F   0  0  0  0  0  0  0  0  0  0  0  0
   19.1258   -0.5504  -10.0107 C   0  0  0  0  0  0  0  0  0  0  0  0
   20.2614   -1.0200  -10.6810 C   0  0  0  0  0  0  0  0  0  0  0  0
   20.6441   -2.4438  -10.6106 C   0  0  1  0  0  0  0  0  0  0  0  0
   19.4995   -3.2019  -10.3193 F   0  0  0  0  0  0  0  0  0  0  0  0
   21.1188   -2.9647  -11.7912 F   0  0  0  0  0  0  0  0  0  0  0  0
   21.5143   -2.7044   -9.5715 F   0  0  0  0  0  0  0  0  0  0  0  0
   23.6477   -0.1965   -9.5611 C   0  0  0  0  0  0  0  0  0  0  0  0
   24.4642   -0.4528   -8.4967 C   0  0  0  0  0  0  0  0  0  0  0  0
   25.8282   -0.4453   -8.5991 C   0  0  0  0  0  0  0  0  0  0  0  0
   26.8685   -0.6472   -7.7793 N   0  0  0  0  0  0  0  0  0  0  0  0
   27.9937   -0.5048   -8.4512 O   0  0  0  0  0  0  0  0  0  0  0  0
   27.7016   -0.2176   -9.6766 N   0  0  0  0  0  0  0  0  0  0  0  0
   26.3496   -0.1608   -9.8542 C   0  0  0  0  0  0  0  0  0  0  0  0
  1  2  2  0
  2  3  1  0
  2  4  1  0
  4  5  2  0
  5  6  1  0
  7  6  1  6
  7  8  1  0
  8  9  2  0
  9 10  1  0
 10 11  2  0
 11 12  1  0
 11 13  1  0
 13 14  2  0
 14 15  1  0
 15 16  1  1
 15 17  1  0
 15 18  1  0
  5 19  1  0
 19 20  2  0
 20 21  1  0
 21 22  2  0
 22 23  1  0
 23 24  1  0
 24 25  2  0
 25  4  1  0
 14  8  1  0
 25 21  1  0
M  CHG  2   2   1   3  -1
M  END
$$$$
