_rank13
     RDKit          3D

 25 27  0  0  0  0  0  0  0  0999 V2000
   26.2955    1.8597  -11.7012 O   0  0  0  0  0  0  0  0  0  0  0  0
   25.9743    0.6414  -11.6767 N   0  0  0  0  0  4  0  0  0  0  0  0
   25.9669   -0.1045  -12.8187 O   0  0  0  0  0  1  0  0  0  0  0  0
   25.6117    0.0186  -10.4538 C   0  0  0  0  0  0  0  0  0  0  0  0
   24.3367   -0.4655  -10.2860 C   0  0  0  0  0  0  0  0  0  0  0  0
   23.3504   -0.3466  -11.3315 N   0  0  0  0  0  0  0  0  0  0  0  0
   22.3882   -1.4127  -11.4521 C   0  0  0  0  0  0  0  0  0  0  0  0
   21.2946   -1.3081  -10.4710 C   0  0  0  0  0  0  0  0  0  0  0  0
   20.9791   -2.4338   -9.6969 C   0  0  0  0  0  0  0  0  0  0  0  0
   19.9793   -2.3900   -8.7526 C   0  0  0  0  0  0  0  0  0  0  0  0
   19.2993   -1.2023   -8.5942 C   0  0  0  0  0  0  0  0  0  0  0  0
   18.3122   -1.1579   -7.6631 F   0  0  0  0  0  0  0  0  0  0  0  0
   19.6042   -0.0912   -9.3523 C   0  0  0  0  0  0  0  0  0  0  0  0
   20.6187   -0.1230  -10.3162 C   0  0  0  0  0  0  0  0  0  0  0  0
   20.9223    1.0695  -11.1313 C   0  0  1  0  0  0  0  0  0  0  0  0
   22.2124    1.5173  -10.8077 F   0  0  0  0  0  0  0  0  0  0  0  0
   20.9609    0.8383  -12.4861 F   0  0  0  0  0  0  0  0  0  0  0  0
   20.0946    2.1338  -10.8362 F   0  0  0  0  0  0  0  0  0  0  0  0
   24.0256   -1.0660   -9.0839 C   0  0  0  0  0  0  0  0  0  0  0  0
   24.9606   -1.1729   -8.0942 C   0  0  0  0  0  0  0  0  0  0  0  0
   26.2362   -0.6996   -8.2350 C   0  0  0  0  0  0  0  0  0  0  0  0
   27.3458   -0.6496   -7.4856 N   0  0  0  0  0  0  0  0  0  0  0  0
   28.3085   -0.0553   -8.1623 O   0  0  0  0  0  0  0  0  0  0  0  0
   27.8454    0.2755   -9.3222 N   0  0  0  0  0  0  0  0  0  0  0  0
   26.5387   -0.0972   -9.4489 C   0  0  0  0  0  0  0  0  0  0  0  0
  1  2  2  0
  2  3  1  0
  2  4  1  0
  4  5  2  0
  5  6  1  0
  7  6  1  6
  7  8  1  0
  8  9  2  0
  9 10  1  0
 10 11  2  0
 11 12  1  0
 11 13  1  0
 13 14  2  0
 14 15  1  0
 15 16  1  1
 15 17  1  0
 15 18  1  0
  5 19  1  0
 19 20  2  0
 20 21  1  0
 21 22  2  0
 22 23  1  0
 23 24  1  0
 24 25  2  0
 25  4  1  0
 14  8  1  0
 25 21  1  0
M  CHG  2   2   1   3  -1
M  END
$$$$
