_rank16
     RDKit          3D

 25 27  0  0  0  0  0  0  0  0999 V2000
   22.6870   -0.8853  -13.5860 O   0  0  0  0  0  0  0  0  0  0  0  0
   21.6799   -0.7508  -12.8406 N   0  0  0  0  0  4  0  0  0  0  0  0
   20.4568   -0.4480  -13.3628 O   0  0  0  0  0  1  0  0  0  0  0  0
   21.7997   -0.9122  -11.4353 C   0  0  0  0  0  0  0  0  0  0  0  0
   22.9146   -1.5202  -10.9106 C   0  0  0  0  0  0  0  0  0  0  0  0
   23.9698   -2.0074  -11.7645 N   0  0  0  0  0  0  0  0  0  0  0  0
   25.2540   -1.3624  -11.6564 C   0  0  0  0  0  0  0  0  0  0  0  0
   25.4362   -0.6656  -10.3715 C   0  0  0  0  0  0  0  0  0  0  0  0
   24.3755    0.1016   -9.8692 C   0  0  0  0  0  0  0  0  0  0  0  0
   24.4818    0.7603   -8.6659 C   0  0  0  0  0  0  0  0  0  0  0  0
   25.6661    0.6402   -7.9722 C   0  0  0  0  0  0  0  0  0  0  0  0
   25.7725    1.2901   -6.7849 F   0  0  0  0  0  0  0  0  0  0  0  0
   26.7136   -0.1125   -8.4605 C   0  0  0  0  0  0  0  0  0  0  0  0
   26.6181   -0.7871   -9.6832 C   0  0  0  0  0  0  0  0  0  0  0  0
   27.7537   -1.5753  -10.2006 C   0  0  1  0  0  0  0  0  0  0  0  0
   27.2607   -2.7780  -10.7298 F   0  0  0  0  0  0  0  0  0  0  0  0
   28.4291   -0.9845  -11.2424 F   0  0  0  0  0  0  0  0  0  0  0  0
   28.6260   -1.9598   -9.2025 F   0  0  0  0  0  0  0  0  0  0  0  0
   22.9934   -1.6552   -9.5402 C   0  0  0  0  0  0  0  0  0  0  0  0
   21.9903   -1.1968   -8.7346 C   0  0  0  0  0  0  0  0  0  0  0  0
   20.8702   -0.5884   -9.2308 C   0  0  0  0  0  0  0  0  0  0  0  0
   19.7505   -0.0495   -8.7298 N   0  0  0  0  0  0  0  0  0  0  0  0
   19.0000    0.4031   -9.7146 O   0  0  0  0  0  0  0  0  0  0  0  0
   19.6084    0.1686  -10.8299 N   0  0  0  0  0  0  0  0  0  0  0  0
   20.8012   -0.4575  -10.6114 C   0  0  0  0  0  0  0  0  0  0  0  0
  1  2  2  0
  2  3  1  0
  2  4  1  0
  4  5  2  0
  5  6  1  0
  7  6  1  6
  7  8  1  0
  8  9  2  0
  9 10  1  0
 10 11  2  0
 11 12  1  0
 11 13  1  0
 13 14  2  0
 14 15  1  0
 15 16  1  6
 15 17  1  0
 15 18  1  0
  5 19  1  0
 19 20  2  0
 20 21  1  0
 21 22  2  0
 22 23  1  0
 23 24  1  0
 24 25  2  0
 25  4  1  0
 14  8  1  0
 25 21  1  0
M  CHG  2   2   1   3  -1
M  END
$$$$
