_rank3
     RDKit          3D

 25 27  0  0  0  0  0  0  0  0999 V2000
   24.2831   -0.0788  -12.6743 O   0  0  0  0  0  0  0  0  0  0  0  0
   25.3634    0.0867  -12.0470 N   0  0  0  0  0  4  0  0  0  0  0  0
   26.5384    0.2775  -12.7130 O   0  0  0  0  0  1  0  0  0  0  0  0
   25.3785    0.0774  -10.6276 C   0  0  0  0  0  0  0  0  0  0  0  0
   24.2380   -0.2501   -9.9349 C   0  0  0  0  0  0  0  0  0  0  0  0
   23.0153   -0.5800  -10.6250 N   0  0  0  0  0  0  0  0  0  0  0  0
   21.8744   -0.9230   -9.8140 C   0  0  0  0  0  0  0  0  0  0  0  0
   20.6764   -1.2283  -10.6146 C   0  0  0  0  0  0  0  0  0  0  0  0
   20.6131   -2.4592  -11.2830 C   0  0  0  0  0  0  0  0  0  0  0  0
   19.5118   -2.8063  -12.0313 C   0  0  0  0  0  0  0  0  0  0  0  0
   18.4741   -1.9028  -12.1011 C   0  0  0  0  0  0  0  0  0  0  0  0
   17.3870   -2.2439  -12.8396 F   0  0  0  0  0  0  0  0  0  0  0  0
   18.5297   -0.6901  -11.4465 C   0  0  0  0  0  0  0  0  0  0  0  0
   19.6443   -0.3252  -10.6824 C   0  0  0  0  0  0  0  0  0  0  0  0
   19.6962    0.9832  -10.0011 C   0  0  1  0  0  0  0  0  0  0  0  0
   20.9943    1.5020  -10.1248 F   0  0  0  0  0  0  0  0  0  0  0  0
   18.8805    1.9440  -10.5507 F   0  0  0  0  0  0  0  0  0  0  0  0
   19.4861    0.8773   -8.6411 F   0  0  0  0  0  0  0  0  0  0  0  0
   24.2954   -0.2499   -8.5568 C   0  0  0  0  0  0  0  0  0  0  0  0
   25.4537    0.0673   -7.9063 C   0  0  0  0  0  0  0  0  0  0  0  0
   26.6026    0.3971   -8.5713 C   0  0  0  0  0  0  0  0  0  0  0  0
   27.8541    0.7444   -8.2421 N   0  0  0  0  0  0  0  0  0  0  0  0
   28.5562    0.9540   -9.3380 O   0  0  0  0  0  0  0  0  0  0  0  0
   27.7890    0.7504  -10.3574 N   0  0  0  0  0  0  0  0  0  0  0  0
   26.5337    0.3936   -9.9581 C   0  0  0  0  0  0  0  0  0  0  0  0
  1  2  2  0
  2  3  1  0
  2  4  1  0
  4  5  2  0
  5  6  1  0
  7  6  1  6
  7  8  1  0
  8  9  2  0
  9 10  1  0
 10 11  2  0
 11 12  1  0
 11 13  1  0
 13 14  2  0
 14 15  1  0
 15 16  1  1
 15 17  1  0
 15 18  1  0
  5 19  1  0
 19 20  2  0
 20 21  1  0
 21 22  2  0
 22 23  1  0
 23 24  1  0
 24 25  2  0
 25  4  1  0
 14  8  1  0
 25 21  1  0
M  CHG  2   2   1   3  -1
M  END
$$$$
