_rank17
     RDKit          3D

 18 20  0  0  0  0  0  0  0  0999 V2000
   20.1737   -2.7176  -10.7957 C   0  0  0  0  0  0  0  0  0  0  0  0
   21.8091   -2.1292  -10.4417 S   0  0  2  0  0  6  0  0  0  0  0  0
   22.8332   -2.7768  -11.3172 O   0  0  0  0  0  0  0  0  0  0  0  0
   22.1245   -2.5125   -9.0277 O   0  0  0  0  0  0  0  0  0  0  0  0
   21.8268   -0.3722  -10.6460 C   0  0  2  0  0  0  0  0  0  0  0  0
   21.5306    0.0369  -12.0748 C   0  0  0  0  0  0  0  0  0  0  0  0
   22.0737    1.4362  -12.1613 C   0  0  0  0  0  0  0  0  0  0  0  0
   22.9893    1.6249  -10.9756 C   0  0  0  0  0  0  0  0  0  0  0  0
   23.1845    0.2218  -10.4384 C   0  0  2  0  0  0  0  0  0  0  0  0
   24.2107   -0.4029  -11.2233 N   0  0  0  0  0  0  0  0  0  0  0  0
   25.3404   -0.5272  -10.3792 C   0  0  0  0  0  0  0  0  0  0  0  0
   26.6349   -0.9301  -10.6294 C   0  0  0  0  0  0  0  0  0  0  0  0
   27.5904   -0.9694   -9.6075 C   0  0  0  0  0  0  0  0  0  0  0  0
   28.8553   -1.3734   -9.9004 F   0  0  0  0  0  0  0  0  0  0  0  0
   27.2138   -0.5951   -8.3341 C   0  0  0  0  0  0  0  0  0  0  0  0
   25.9167   -0.1935   -8.0930 C   0  0  0  0  0  0  0  0  0  0  0  0
   24.9554   -0.1531   -9.1167 C   0  0  0  0  0  0  0  0  0  0  0  0
   23.6174    0.2100   -9.1077 O   0  0  0  0  0  0  0  0  0  0  0  0
  2  1  1  6
  2  3  2  0
  2  4  2  0
  5  2  1  6
  5  6  1  0
  6  7  1  1
  7  8  1  1
  8  9  1  1
  9 10  1  6
 10 11  1  0
 11 12  2  0
 12 13  1  0
 13 14  1  0
 13 15  2  0
 15 16  1  0
 16 17  2  0
 17 18  1  0
  9  5  1  0
 17 11  1  0
  9 18  1  0
M  END
$$$$
