_rank11
     RDKit          3D

 18 20  0  0  0  0  0  0  0  0999 V2000
   25.0172   -0.4462   -8.3572 C   0  0  0  0  0  0  0  0  0  0  0  0
   26.4773    0.1029   -9.2013 S   0  0  2  0  0  6  0  0  0  0  0  0
   27.7043   -0.5802   -8.6891 O   0  0  0  0  0  0  0  0  0  0  0  0
   26.6313    1.5667   -8.9196 O   0  0  0  0  0  0  0  0  0  0  0  0
   26.2672   -0.1953  -10.9322 C   0  0  2  0  0  0  0  0  0  0  0  0
   26.8186    0.9369  -11.7752 C   0  0  0  0  0  0  0  0  0  0  0  0
   26.1237    0.7639  -13.0971 C   0  0  0  0  0  0  0  0  0  0  0  0
   24.9480   -0.1525  -12.8574 C   0  0  0  0  0  0  0  0  0  0  0  0
   24.8297   -0.2072  -11.3480 C   0  0  2  0  0  0  0  0  0  0  0  0
   24.1011    0.9561  -10.9289 N   0  0  0  0  0  0  0  0  0  0  0  0
   22.8383    0.4979  -10.4824 C   0  0  0  0  0  0  0  0  0  0  0  0
   21.7004    1.1727  -10.0942 C   0  0  0  0  0  0  0  0  0  0  0  0
   20.5539    0.4819   -9.6854 C   0  0  0  0  0  0  0  0  0  0  0  0
   19.4544    1.1889   -9.3110 F   0  0  0  0  0  0  0  0  0  0  0  0
   20.5799   -0.8975   -9.6765 C   0  0  0  0  0  0  0  0  0  0  0  0
   21.7225   -1.5641  -10.0665 C   0  0  0  0  0  0  0  0  0  0  0  0
   22.8748   -0.8734  -10.4774 C   0  0  0  0  0  0  0  0  0  0  0  0
   24.1143   -1.3248  -10.9039 O   0  0  0  0  0  0  0  0  0  0  0  0
  2  1  1  1
  2  3  2  0
  2  4  2  0
  5  2  1  1
  5  6  1  0
  6  7  1  1
  7  8  1  1
  8  9  1  1
  9 10  1  1
 10 11  1  0
 11 12  2  0
 12 13  1  0
 13 14  1  0
 13 15  2  0
 15 16  1  0
 16 17  2  0
 17 18  1  0
  9  5  1  0
 17 11  1  0
  9 18  1  0
M  END
$$$$
