_rank4
     RDKit          3D

 18 20  0  0  0  0  0  0  0  0999 V2000
   26.6381    1.1509   -8.2699 C   0  0  0  0  0  0  0  0  0  0  0  0
   26.2755   -0.5063   -8.7878 S   0  0  2  0  0  6  0  0  0  0  0  0
   25.0032   -1.0098   -8.1859 O   0  0  0  0  0  0  0  0  0  0  0  0
   27.3833   -1.3824   -8.2867 O   0  0  0  0  0  0  0  0  0  0  0  0
   26.1898   -0.5330  -10.5544 C   0  0  2  0  0  0  0  0  0  0  0  0
   26.7910    0.7137  -11.1716 C   0  0  0  0  0  0  0  0  0  0  0  0
   26.1921    0.7494  -12.5501 C   0  0  0  0  0  0  0  0  0  0  0  0
   25.0091   -0.1887  -12.5383 C   0  0  0  0  0  0  0  0  0  0  0  0
   24.7853   -0.4753  -11.0675 C   0  0  2  0  0  0  0  0  0  0  0  0
   24.0206    0.6120  -10.5266 N   0  0  0  0  0  0  0  0  0  0  0  0
   22.7328    0.0951  -10.2464 C   0  0  0  0  0  0  0  0  0  0  0  0
   21.5656    0.7060   -9.8402 C   0  0  0  0  0  0  0  0  0  0  0  0
   20.3983   -0.0354   -9.6248 C   0  0  0  0  0  0  0  0  0  0  0  0
   19.2700    0.6094   -9.2244 F   0  0  0  0  0  0  0  0  0  0  0  0
   20.4336   -1.3998   -9.8270 C   0  0  0  0  0  0  0  0  0  0  0  0
   21.6056   -2.0023  -10.2334 C   0  0  0  0  0  0  0  0  0  0  0  0
   22.7789   -1.2607  -10.4504 C   0  0  0  0  0  0  0  0  0  0  0  0
   24.0486   -1.6454  -10.8528 O   0  0  0  0  0  0  0  0  0  0  0  0
  2  1  1  1
  2  3  2  0
  2  4  2  0
  5  2  1  1
  5  6  1  0
  6  7  1  1
  7  8  1  1
  8  9  1  1
  9 10  1  1
 10 11  1  0
 11 12  2  0
 12 13  1  0
 13 14  1  0
 13 15  2  0
 15 16  1  0
 16 17  2  0
 17 18  1  0
  9  5  1  0
 17 11  1  0
  9 18  1  0
M  END
$$$$
