_rank12
     RDKit          3D

 18 20  0  0  0  0  0  0  0  0999 V2000
   25.0585   -0.6108   -8.0048 C   0  0  0  0  0  0  0  0  0  0  0  0
   26.3850    0.1297   -8.9202 S   0  0  2  0  0  6  0  0  0  0  0  0
   27.7212   -0.2749   -8.3860 O   0  0  0  0  0  0  0  0  0  0  0  0
   26.2684    1.6142   -8.7523 O   0  0  0  0  0  0  0  0  0  0  0  0
   26.2191   -0.3356  -10.6188 C   0  0  2  0  0  0  0  0  0  0  0  0
   26.8157    0.6985  -11.5522 C   0  0  0  0  0  0  0  0  0  0  0  0
   26.1560    0.4060  -12.8711 C   0  0  0  0  0  0  0  0  0  0  0  0
   24.9569   -0.4633  -12.5780 C   0  0  0  0  0  0  0  0  0  0  0  0
   24.7942   -0.3659  -11.0749 C   0  0  2  0  0  0  0  0  0  0  0  0
   24.0759    0.8445  -10.7952 N   0  0  0  0  0  0  0  0  0  0  0  0
   22.7923    0.4530  -10.3443 C   0  0  0  0  0  0  0  0  0  0  0  0
   21.6566    1.1809  -10.0595 C   0  0  0  0  0  0  0  0  0  0  0  0
   20.4861    0.5523   -9.6195 C   0  0  0  0  0  0  0  0  0  0  0  0
   19.3897    1.3103   -9.3505 F   0  0  0  0  0  0  0  0  0  0  0  0
   20.4860   -0.8197   -9.4737 C   0  0  0  0  0  0  0  0  0  0  0  0
   21.6266   -1.5396   -9.7609 C   0  0  0  0  0  0  0  0  0  0  0  0
   22.8030   -0.9115  -10.2027 C   0  0  0  0  0  0  0  0  0  0  0  0
   24.0455   -1.4226  -10.5446 O   0  0  0  0  0  0  0  0  0  0  0  0
  2  1  1  1
  2  3  2  0
  2  4  2  0
  5  2  1  1
  5  6  1  0
  6  7  1  1
  7  8  1  1
  8  9  1  1
  9 10  1  6
 10 11  1  0
 11 12  2  0
 12 13  1  0
 13 14  1  0
 13 15  2  0
 15 16  1  0
 16 17  2  0
 17 18  1  0
  9  5  1  0
 17 11  1  0
  9 18  1  0
M  END
$$$$
