_rank14
     RDKit          3D

 18 20  0  0  0  0  0  0  0  0999 V2000
   20.6252   -1.1116  -11.0720 C   0  0  0  0  0  0  0  0  0  0  0  0
   22.3556   -1.3934  -10.8027 S   0  0  2  0  0  6  0  0  0  0  0  0
   22.7108   -2.8386  -10.9433 O   0  0  0  0  0  0  0  0  0  0  0  0
   22.6576   -0.9952   -9.3899 O   0  0  0  0  0  0  0  0  0  0  0  0
   23.2677   -0.4063  -11.9529 C   0  0  2  0  0  0  0  0  0  0  0  0
   23.8110   -1.2301  -13.1031 C   0  0  0  0  0  0  0  0  0  0  0  0
   24.9215   -0.3791  -13.6534 C   0  0  0  0  0  0  0  0  0  0  0  0
   25.2415    0.6568  -12.6025 C   0  0  0  0  0  0  0  0  0  0  0  0
   24.5241    0.1557  -11.3658 C   0  0  2  0  0  0  0  0  0  0  0  0
   25.3626   -0.8331  -10.7502 N   0  0  0  0  0  0  0  0  0  0  0  0
   25.8458   -0.2572   -9.5506 C   0  0  0  0  0  0  0  0  0  0  0  0
   26.7784   -0.6919   -8.6329 C   0  0  0  0  0  0  0  0  0  0  0  0
   27.0914    0.0718   -7.5027 C   0  0  0  0  0  0  0  0  0  0  0  0
   28.0177   -0.3964   -6.6242 F   0  0  0  0  0  0  0  0  0  0  0  0
   26.4465    1.2777   -7.3190 C   0  0  0  0  0  0  0  0  0  0  0  0
   25.5151    1.7045   -8.2421 C   0  0  0  0  0  0  0  0  0  0  0  0
   25.1989    0.9400   -9.3776 C   0  0  0  0  0  0  0  0  0  0  0  0
   24.3126    1.1649  -10.4197 O   0  0  0  0  0  0  0  0  0  0  0  0
  2  1  1  6
  2  3  2  0
  2  4  2  0
  5  2  1  1
  5  6  1  0
  6  7  1  1
  7  8  1  1
  8  9  1  1
  9 10  1  1
 10 11  1  0
 11 12  2  0
 12 13  1  0
 13 14  1  0
 13 15  2  0
 15 16  1  0
 16 17  2  0
 17 18  1  0
  9  5  1  0
 17 11  1  0
  9 18  1  0
M  END
$$$$
