_rank16
     RDKit          3D

 18 20  0  0  0  0  0  0  0  0999 V2000
   20.1441   -0.6864  -10.1091 C   0  0  0  0  0  0  0  0  0  0  0  0
   21.8955   -0.8997   -9.9267 S   0  0  2  0  0  6  0  0  0  0  0  0
   22.2557   -2.3254   -9.6583 O   0  0  0  0  0  0  0  0  0  0  0  0
   22.3199   -0.1000   -8.7325 O   0  0  0  0  0  0  0  0  0  0  0  0
   22.6852   -0.3173  -11.3985 C   0  0  2  0  0  0  0  0  0  0  0  0
   22.6128   -1.3318  -12.5219 C   0  0  0  0  0  0  0  0  0  0  0  0
   23.7162   -0.9088  -13.4514 C   0  0  0  0  0  0  0  0  0  0  0  0
   24.6100    0.0268  -12.6733 C   0  0  0  0  0  0  0  0  0  0  0  0
   24.1637   -0.1528  -11.2367 C   0  0  2  0  0  0  0  0  0  0  0  0
   24.8188   -1.3220  -10.7233 N   0  0  0  0  0  0  0  0  0  0  0  0
   25.7707   -0.8656   -9.7800 C   0  0  0  0  0  0  0  0  0  0  0  0
   26.7589   -1.5239   -9.0795 C   0  0  0  0  0  0  0  0  0  0  0  0
   27.5901   -0.8393   -8.1855 C   0  0  0  0  0  0  0  0  0  0  0  0
   28.5517   -1.5295   -7.5161 F   0  0  0  0  0  0  0  0  0  0  0  0
   27.4038    0.5170   -8.0142 C   0  0  0  0  0  0  0  0  0  0  0  0
   26.4128    1.1671   -8.7192 C   0  0  0  0  0  0  0  0  0  0  0  0
   25.5769    0.4827   -9.6172 C   0  0  0  0  0  0  0  0  0  0  0  0
   24.5344    0.9208  -10.4193 O   0  0  0  0  0  0  0  0  0  0  0  0
  2  1  1  6
  2  3  2  0
  2  4  2  0
  5  2  1  1
  5  6  1  0
  6  7  1  1
  7  8  1  1
  8  9  1  1
  9 10  1  1
 10 11  1  0
 11 12  2  0
 12 13  1  0
 13 14  1  0
 13 15  2  0
 15 16  1  0
 16 17  2  0
 17 18  1  0
  9  5  1  0
 17 11  1  0
  9 18  1  0
M  END
$$$$
