_rank3
     RDKit          3D

 18 20  0  0  0  0  0  0  0  0999 V2000
   28.0265    0.0091   -8.4658 C   0  0  0  0  0  0  0  0  0  0  0  0
   26.3067   -0.0121   -8.8990 S   0  0  2  0  0  6  0  0  0  0  0  0
   25.6098    1.2371   -8.4648 O   0  0  0  0  0  0  0  0  0  0  0  0
   25.6753   -1.1541   -8.1623 O   0  0  0  0  0  0  0  0  0  0  0  0
   26.1744   -0.2305  -10.6494 C   0  0  2  0  0  0  0  0  0  0  0  0
   26.7449    0.9471  -11.4139 C   0  0  0  0  0  0  0  0  0  0  0  0
   26.1093    0.8284  -12.7712 C   0  0  0  0  0  0  0  0  0  0  0  0
   24.9377   -0.1128  -12.6255 C   0  0  0  0  0  0  0  0  0  0  0  0
   24.7563   -0.2404  -11.1268 C   0  0  2  0  0  0  0  0  0  0  0  0
   23.9939    0.8926  -10.6855 N   0  0  0  0  0  0  0  0  0  0  0  0
   22.7199    0.3982  -10.3158 C   0  0  0  0  0  0  0  0  0  0  0  0
   21.5570    1.0396   -9.9458 C   0  0  0  0  0  0  0  0  0  0  0  0
   20.4043    0.3161   -9.6195 C   0  0  0  0  0  0  0  0  0  0  0  0
   19.2798    0.9909   -9.2601 F   0  0  0  0  0  0  0  0  0  0  0  0
   20.4498   -1.0618   -9.6742 C   0  0  0  0  0  0  0  0  0  0  0  0
   21.6173   -1.6949  -10.0453 C   0  0  0  0  0  0  0  0  0  0  0  0
   22.7760   -0.9713  -10.3734 C   0  0  0  0  0  0  0  0  0  0  0  0
   24.0388   -1.3866  -10.7668 O   0  0  0  0  0  0  0  0  0  0  0  0
  2  1  1  6
  2  3  2  0
  2  4  2  0
  5  2  1  1
  5  6  1  0
  6  7  1  1
  7  8  1  1
  8  9  1  1
  9 10  1  1
 10 11  1  0
 11 12  2  0
 12 13  1  0
 13 14  1  0
 13 15  2  0
 15 16  1  0
 16 17  2  0
 17 18  1  0
  9  5  1  0
 17 11  1  0
  9 18  1  0
M  END
$$$$
