_rank7
     RDKit          3D

 23 26  0  0  0  0  0  0  0  0999 V2000
   27.2889   -2.1083  -10.7683 Cl  0  0  0  0  0  0  0  0  0  0  0  0
   27.0649   -0.8673   -9.5344 C   0  0  0  0  0  0  0  0  0  0  0  0
   27.9839   -0.8483   -8.5080 C   0  0  0  0  0  0  0  0  0  0  0  0
   27.8642    0.1080   -7.4996 C   0  0  0  0  0  0  0  0  0  0  0  0
   26.8173    1.0016   -7.5789 C   0  0  0  0  0  0  0  0  0  0  0  0
   25.8879    1.0039   -8.5915 C   0  0  0  0  0  0  0  0  0  0  0  0
   26.0362    0.0371   -9.5811 C   0  0  0  0  0  0  0  0  0  0  0  0
   25.0751    0.0001  -10.6766 C   0  0  2  0  0  0  0  0  0  0  0  0
   24.2609   -1.3083  -10.6377 C   0  0  0  0  0  0  0  0  0  0  0  0
   23.1969   -1.3287  -11.6608 C   0  0  1  0  0  0  0  0  0  0  0  0
   21.8307   -1.0645  -11.2222 C   0  0  0  0  0  0  0  0  0  0  0  0
   20.8619   -1.9758  -11.6607 C   0  0  0  0  0  0  0  0  0  0  0  0
   19.5360   -1.8571  -11.3379 C   0  0  0  0  0  0  0  0  0  0  0  0
   19.1393   -0.8035  -10.5532 C   0  0  0  0  0  0  0  0  0  0  0  0
   20.0916    0.1133  -10.1081 C   0  0  0  0  0  0  0  0  0  0  0  0
   19.5668    1.5795   -9.0214 Br  0  0  0  0  0  0  0  0  0  0  0  0
   21.4224   -0.0131  -10.4372 C   0  0  0  0  0  0  0  0  0  0  0  0
   23.4896   -0.4766  -12.8096 N   0  0  0  0  0  0  0  0  0  0  0  0
   24.8419   -0.0994  -13.0271 C   0  0  0  0  0  0  0  0  0  0  0  0
   25.5797    0.0933  -14.1631 N   0  0  0  0  0  0  0  0  0  0  0  0
   26.7941    0.4472  -13.8064 N   0  0  0  0  0  0  0  0  0  0  0  0
   26.8246    0.4775  -12.4991 N   0  0  0  0  0  0  0  0  0  0  0  0
   25.6623    0.1525  -11.9987 N   0  0  0  0  0  0  0  0  0  0  0  0
  1  2  1  0
  2  3  2  0
  3  4  1  0
  4  5  2  0
  5  6  1  0
  6  7  2  0
  8  7  1  1
  9  8  1  6
  9 10  1  0
 10 11  1  1
 11 12  2  0
 12 13  1  0
 13 14  2  0
 14 15  1  0
 15 16  1  0
 15 17  2  0
 10 18  1  0
 18 19  1  0
 19 20  2  0
 20 21  1  0
 21 22  2  0
 22 23  1  0
  7  2  1  0
 23  8  1  0
 17 11  1  0
 23 19  1  0
M  END
$$$$
