_rank8
     RDKit          3D

 23 26  0  0  0  0  0  0  0  0999 V2000
   25.5378    1.9471   -8.4884 Cl  0  0  0  0  0  0  0  0  0  0  0  0
   26.4456    0.4356   -8.5519 C   0  0  0  0  0  0  0  0  0  0  0  0
   27.4073    0.2551   -7.5819 C   0  0  0  0  0  0  0  0  0  0  0  0
   28.1610   -0.9186   -7.5751 C   0  0  0  0  0  0  0  0  0  0  0  0
   27.9042   -1.8559   -8.5531 C   0  0  0  0  0  0  0  0  0  0  0  0
   26.9512   -1.7001   -9.5312 C   0  0  0  0  0  0  0  0  0  0  0  0
   26.2173   -0.5182   -9.5093 C   0  0  0  0  0  0  0  0  0  0  0  0
   25.1942   -0.3076  -10.5262 C   0  0  2  0  0  0  0  0  0  0  0  0
   24.2920   -1.5512  -10.6515 C   0  0  0  0  0  0  0  0  0  0  0  0
   23.1719   -1.3305  -11.5873 C   0  0  1  0  0  0  0  0  0  0  0  0
   21.8558   -1.0635  -11.0170 C   0  0  0  0  0  0  0  0  0  0  0  0
   20.9447   -2.1262  -11.0604 C   0  0  0  0  0  0  0  0  0  0  0  0
   19.6690   -2.0261  -10.5716 C   0  0  0  0  0  0  0  0  0  0  0  0
   19.2659   -0.8376  -10.0167 C   0  0  0  0  0  0  0  0  0  0  0  0
   20.1610    0.2309   -9.9656 C   0  0  0  0  0  0  0  0  0  0  0  0
   19.6261    1.8856   -9.2027 Br  0  0  0  0  0  0  0  0  0  0  0  0
   21.4416    0.1222  -10.4593 C   0  0  0  0  0  0  0  0  0  0  0  0
   23.4578   -0.3126  -12.5940 N   0  0  0  0  0  0  0  0  0  0  0  0
   24.8188    0.0137  -12.8381 C   0  0  0  0  0  0  0  0  0  0  0  0
   25.5016    0.3541  -13.9739 N   0  0  0  0  0  0  0  0  0  0  0  0
   26.7568    0.5669  -13.6478 N   0  0  0  0  0  0  0  0  0  0  0  0
   26.8650    0.3696  -12.3592 N   0  0  0  0  0  0  0  0  0  0  0  0
   25.7133    0.0343  -11.8413 N   0  0  0  0  0  0  0  0  0  0  0  0
  1  2  1  0
  2  3  2  0
  3  4  1  0
  4  5  2  0
  5  6  1  0
  6  7  2  0
  8  7  1  1
  9  8  1  6
  9 10  1  0
 10 11  1  1
 11 12  2  0
 12 13  1  0
 13 14  2  0
 14 15  1  0
 15 16  1  0
 15 17  2  0
 10 18  1  0
 18 19  1  0
 19 20  2  0
 20 21  1  0
 21 22  2  0
 22 23  1  0
  7  2  1  0
 23  8  1  0
 17 11  1  0
 23 19  1  0
M  END
$$$$
