_rank13
     RDKit          3D

 23 26  0  0  0  0  0  0  0  0999 V2000
   19.4920   -2.0980  -10.5651 Cl  0  0  0  0  0  0  0  0  0  0  0  0
   19.7889   -0.4499  -10.0098 C   0  0  0  0  0  0  0  0  0  0  0  0
   18.6817    0.2844   -9.6447 C   0  0  0  0  0  0  0  0  0  0  0  0
   18.8467    1.5949   -9.1963 C   0  0  0  0  0  0  0  0  0  0  0  0
   20.1281    2.1005   -9.1389 C   0  0  0  0  0  0  0  0  0  0  0  0
   21.2483    1.3893   -9.4970 C   0  0  0  0  0  0  0  0  0  0  0  0
   21.0487    0.0854   -9.9397 C   0  0  0  0  0  0  0  0  0  0  0  0
   22.2068   -0.7091  -10.3301 C   0  0  2  0  0  0  0  0  0  0  0  0
   23.1989    0.1449  -11.1444 C   0  0  0  0  0  0  0  0  0  0  0  0
   24.4388   -0.5933  -11.4557 C   0  0  1  0  0  0  0  0  0  0  0  0
   25.6238   -0.2926  -10.6595 C   0  0  0  0  0  0  0  0  0  0  0  0
   26.3834    0.8041  -11.0855 C   0  0  0  0  0  0  0  0  0  0  0  0
   27.5261    1.2049  -10.4452 C   0  0  0  0  0  0  0  0  0  0  0  0
   27.9447    0.5049   -9.3417 C   0  0  0  0  0  0  0  0  0  0  0  0
   27.1997   -0.5901   -8.9041 C   0  0  0  0  0  0  0  0  0  0  0  0
   27.7591   -1.5744   -7.3796 Br  0  0  0  0  0  0  0  0  0  0  0  0
   26.0523   -0.9866   -9.5535 C   0  0  0  0  0  0  0  0  0  0  0  0
   24.2525   -2.0410  -11.4842 N   0  0  0  0  0  0  0  0  0  0  0  0
   22.9305   -2.5357  -11.6449 C   0  0  0  0  0  0  0  0  0  0  0  0
   22.4201   -3.6211  -12.3033 N   0  0  0  0  0  0  0  0  0  0  0  0
   21.1172   -3.6276  -12.1315 N   0  0  0  0  0  0  0  0  0  0  0  0
   20.8145   -2.5898  -11.3951 N   0  0  0  0  0  0  0  0  0  0  0  0
   21.8866   -1.9104  -11.0850 N   0  0  0  0  0  0  0  0  0  0  0  0
  1  2  1  0
  2  3  2  0
  3  4  1  0
  4  5  2  0
  5  6  1  0
  6  7  2  0
  8  7  1  6
  9  8  1  6
  9 10  1  0
 10 11  1  1
 11 12  2  0
 12 13  1  0
 13 14  2  0
 14 15  1  0
 15 16  1  0
 15 17  2  0
 10 18  1  0
 18 19  1  0
 19 20  2  0
 20 21  1  0
 21 22  2  0
 22 23  1  0
  7  2  1  0
 23  8  1  0
 17 11  1  0
 23 19  1  0
M  END
$$$$
