_rank15
     RDKit          3D

 22 25  0  0  0  0  0  0  0  0999 V2000
   28.2812   -0.9356   -8.6652 I   0  0  0  0  0  0  0  0  0  0  0  0
   26.6089   -0.5754   -9.8771 C   0  0  0  0  0  0  0  0  0  0  0  0
   26.8115   -0.1493  -11.1691 C   0  0  0  0  0  0  0  0  0  0  0  0
   25.7384    0.0906  -11.9734 C   0  0  0  0  0  0  0  0  0  0  0  0
   24.4606   -0.0976  -11.4800 C   0  0  0  0  0  0  0  0  0  0  0  0
   24.2146   -0.5224  -10.1947 C   0  0  0  0  0  0  0  0  0  0  0  0
   22.8493   -0.7119   -9.7030 C   0  0  2  0  0  0  0  0  0  0  0  0
   21.9866   -1.5235  -10.6580 C   0  0  0  0  0  0  0  0  0  0  0  0
   20.5716   -1.4306  -10.1308 C   0  0  2  0  0  0  0  0  0  0  0  0
   19.6762   -2.4333  -10.7228 C   0  0  0  0  0  0  0  0  0  0  0  0
   19.4699   -2.3869  -12.0853 C   0  0  0  0  0  0  0  0  0  0  0  0
   18.6580   -3.2640  -12.7647 C   0  0  0  0  0  0  0  0  0  0  0  0
   18.0229   -4.2372  -12.0264 C   0  0  0  0  0  0  0  0  0  0  0  0
   18.2184   -4.2998  -10.6527 C   0  0  0  0  0  0  0  0  0  0  0  0
   19.0326   -3.4137  -10.0010 C   0  0  0  0  0  0  0  0  0  0  0  0
   20.1248   -0.0688  -10.3928 N   0  0  0  0  0  0  0  0  0  0  0  0
   19.0529    0.4753  -10.9357 N   0  0  0  0  0  0  0  0  0  0  0  0
   19.2339    1.7806  -10.8875 N   0  0  0  0  0  0  0  0  0  0  0  0
   20.3968    2.0840  -10.3264 N   0  0  0  0  0  0  0  0  0  0  0  0
   20.9557    0.9132  -10.0157 C   0  0  0  0  0  0  0  0  0  0  0  0
   22.1800    0.5383   -9.4025 N   0  0  0  0  0  0  0  0  0  0  0  0
   25.3155   -0.7587   -9.3996 C   0  0  0  0  0  0  0  0  0  0  0  0
  1  2  1  0
  2  3  2  0
  3  4  1  0
  4  5  2  0
  5  6  1  0
  7  6  1  6
  8  7  1  6
  8  9  1  0
  9 10  1  6
 10 11  2  0
 11 12  1  0
 12 13  2  0
 13 14  1  0
 14 15  2  0
  9 16  1  0
 16 17  1  0
 17 18  2  0
 18 19  1  0
 19 20  2  0
 20 21  1  0
  6 22  2  0
 22  2  1  0
 21  7  1  0
 15 10  1  0
 20 16  1  0
M  END
$$$$
