_rank1
     RDKit          3D

 22 25  0  0  0  0  0  0  0  0999 V2000
   17.8355   -2.0801  -10.3903 I   0  0  0  0  0  0  0  0  0  0  0  0
   19.4408   -0.7362  -10.4987 C   0  0  0  0  0  0  0  0  0  0  0  0
   19.1953    0.6011  -10.2904 C   0  0  0  0  0  0  0  0  0  0  0  0
   20.2245    1.4912  -10.3564 C   0  0  0  0  0  0  0  0  0  0  0  0
   21.5015    1.0383  -10.6317 C   0  0  0  0  0  0  0  0  0  0  0  0
   21.7896   -0.2898  -10.8461 C   0  0  0  0  0  0  0  0  0  0  0  0
   23.1527   -0.7368  -11.1355 C   0  0  2  0  0  0  0  0  0  0  0  0
   24.1441   -0.3443  -10.0501 C   0  0  0  0  0  0  0  0  0  0  0  0
   25.5178   -0.6632  -10.5983 C   0  0  2  0  0  0  0  0  0  0  0  0
   26.5564   -0.6768   -9.5596 C   0  0  0  0  0  0  0  0  0  0  0  0
   27.4283    0.3900   -9.5079 C   0  0  0  0  0  0  0  0  0  0  0  0
   28.4437    0.5020   -8.5877 C   0  0  0  0  0  0  0  0  0  0  0  0
   28.5826   -0.5184   -7.6739 C   0  0  0  0  0  0  0  0  0  0  0  0
   27.7137   -1.6013   -7.7103 C   0  0  0  0  0  0  0  0  0  0  0  0
   26.7108   -1.6879   -8.6374 C   0  0  0  0  0  0  0  0  0  0  0  0
   25.7861    0.3261  -11.6337 N   0  0  0  0  0  0  0  0  0  0  0  0
   26.7912    1.1307  -11.9200 N   0  0  0  0  0  0  0  0  0  0  0  0
   26.4359    1.7994  -12.9997 N   0  0  0  0  0  0  0  0  0  0  0  0
   25.2267    1.4411  -13.4105 N   0  0  0  0  0  0  0  0  0  0  0  0
   24.8205    0.5107  -12.5450 C   0  0  0  0  0  0  0  0  0  0  0  0
   23.6396   -0.2670  -12.4174 N   0  0  0  0  0  0  0  0  0  0  0  0
   20.7326   -1.1718  -10.7744 C   0  0  0  0  0  0  0  0  0  0  0  0
  1  2  1  0
  2  3  2  0
  3  4  1  0
  4  5  2  0
  5  6  1  0
  7  6  1  1
  8  7  1  6
  8  9  1  0
  9 10  1  1
 10 11  2  0
 11 12  1  0
 12 13  2  0
 13 14  1  0
 14 15  2  0
  9 16  1  0
 16 17  1  0
 17 18  2  0
 18 19  1  0
 19 20  2  0
 20 21  1  0
  6 22  2  0
 22  2  1  0
 21  7  1  0
 15 10  1  0
 20 16  1  0
M  END
$$$$
