_rank12
     RDKit          3D

 23 26  0  0  0  0  0  0  0  0999 V2000
   25.1196    0.1568   -7.6565 Cl  0  0  0  0  0  0  0  0  0  0  0  0
   26.5519   -0.3659   -8.5442 C   0  0  0  0  0  0  0  0  0  0  0  0
   27.6280   -0.7760   -7.7877 C   0  0  0  0  0  0  0  0  0  0  0  0
   28.7919   -1.2020   -8.4276 C   0  0  0  0  0  0  0  0  0  0  0  0
   28.8107   -1.1923   -9.8062 C   0  0  0  0  0  0  0  0  0  0  0  0
   27.7515   -0.7882  -10.5833 C   0  0  0  0  0  0  0  0  0  0  0  0
   26.6060   -0.3696   -9.9137 C   0  0  0  0  0  0  0  0  0  0  0  0
   25.4557    0.0677  -10.6951 C   0  0  2  0  0  0  0  0  0  0  0  0
   24.5923   -1.1404  -11.1091 C   0  0  0  0  0  0  0  0  0  0  0  0
   23.3556   -0.7260  -11.8004 C   0  0  1  0  0  0  0  0  0  0  0  0
   22.1128   -0.7484  -11.0365 C   0  0  0  0  0  0  0  0  0  0  0  0
   22.2455   -0.5988   -9.6504 C   0  0  0  0  0  0  0  0  0  0  0  0
   21.1715   -0.6066   -8.8001 C   0  0  0  0  0  0  0  0  0  0  0  0
   19.9143   -0.7671   -9.3261 C   0  0  0  0  0  0  0  0  0  0  0  0
   19.7645   -0.9175  -10.7047 C   0  0  0  0  0  0  0  0  0  0  0  0
   18.0348   -1.1413  -11.4558 Br  0  0  0  0  0  0  0  0  0  0  0  0
   20.8492   -0.9088  -11.5524 C   0  0  0  0  0  0  0  0  0  0  0  0
   23.4738    0.5720  -12.4582 N   0  0  0  0  0  0  0  0  0  0  0  0
   24.7798    1.0593  -12.7320 C   0  0  0  0  0  0  0  0  0  0  0  0
   25.3007    1.7849  -13.7685 N   0  0  0  0  0  0  0  0  0  0  0  0
   26.5781    1.9803  -13.5293 N   0  0  0  0  0  0  0  0  0  0  0  0
   26.8553    1.4027  -12.3889 N   0  0  0  0  0  0  0  0  0  0  0  0
   25.7915    0.8378  -11.8825 N   0  0  0  0  0  0  0  0  0  0  0  0
  1  2  1  0
  2  3  2  0
  3  4  1  0
  4  5  2  0
  5  6  1  0
  6  7  2  0
  8  7  1  6
  9  8  1  6
  9 10  1  0
 10 11  1  1
 11 12  2  0
 12 13  1  0
 13 14  2  0
 14 15  1  0
 15 16  1  0
 15 17  2  0
 10 18  1  0
 18 19  1  0
 19 20  2  0
 20 21  1  0
 21 22  2  0
 22 23  1  0
  7  2  1  0
 23  8  1  0
 17 11  1  0
 23 19  1  0
M  END
$$$$
