_rank9
     RDKit          3D

 23 26  0  0  0  0  0  0  0  0999 V2000
   26.8222    2.3768   -9.5287 Cl  0  0  0  0  0  0  0  0  0  0  0  0
   27.0854    0.7029   -9.0373 C   0  0  0  0  0  0  0  0  0  0  0  0
   28.0629    0.4868   -8.0906 C   0  0  0  0  0  0  0  0  0  0  0  0
   28.3214   -0.8139   -7.6580 C   0  0  0  0  0  0  0  0  0  0  0  0
   27.5758   -1.8361   -8.2059 C   0  0  0  0  0  0  0  0  0  0  0  0
   26.5958   -1.6472   -9.1508 C   0  0  0  0  0  0  0  0  0  0  0  0
   26.3632   -0.3380   -9.5603 C   0  0  0  0  0  0  0  0  0  0  0  0
   25.3327   -0.0872  -10.5605 C   0  0  2  0  0  0  0  0  0  0  0  0
   24.2570   -1.1905  -10.5170 C   0  0  0  0  0  0  0  0  0  0  0  0
   23.1359   -0.9069  -11.4345 C   0  0  1  0  0  0  0  0  0  0  0  0
   21.9007   -0.3902  -10.8550 C   0  0  0  0  0  0  0  0  0  0  0  0
   20.9882    0.1668  -11.7596 C   0  0  0  0  0  0  0  0  0  0  0  0
   19.7889    0.6989  -11.3661 C   0  0  0  0  0  0  0  0  0  0  0  0
   19.4669    0.6864  -10.0323 C   0  0  0  0  0  0  0  0  0  0  0  0
   20.3646    0.1354   -9.1179 C   0  0  0  0  0  0  0  0  0  0  0  0
   19.9413    0.1068   -7.2669 Br  0  0  0  0  0  0  0  0  0  0  0  0
   21.5682   -0.3974   -9.5216 C   0  0  0  0  0  0  0  0  0  0  0  0
   23.5153   -0.0542  -12.5571 N   0  0  0  0  0  0  0  0  0  0  0  0
   24.8955    0.0404  -12.8803 C   0  0  0  0  0  0  0  0  0  0  0  0
   25.5640    0.1547  -14.0686 N   0  0  0  0  0  0  0  0  0  0  0  0
   26.8511    0.2134  -13.8093 N   0  0  0  0  0  0  0  0  0  0  0  0
   26.9923    0.1393  -12.5110 N   0  0  0  0  0  0  0  0  0  0  0  0
   25.8310    0.0339  -11.9217 N   0  0  0  0  0  0  0  0  0  0  0  0
  1  2  1  0
  2  3  2  0
  3  4  1  0
  4  5  2  0
  5  6  1  0
  6  7  2  0
  8  7  1  1
  9  8  1  6
  9 10  1  0
 10 11  1  1
 11 12  2  0
 12 13  1  0
 13 14  2  0
 14 15  1  0
 15 16  1  0
 15 17  2  0
 10 18  1  0
 18 19  1  0
 19 20  2  0
 20 21  1  0
 21 22  2  0
 22 23  1  0
  7  2  1  0
 23  8  1  0
 17 11  1  0
 23 19  1  0
M  END
$$$$
