_rank11
     RDKit          3D

 23 26  0  0  0  0  0  0  0  0999 V2000
   25.7265    2.2918   -9.1414 Cl  0  0  0  0  0  0  0  0  0  0  0  0
   26.4485    0.7116   -8.8341 C   0  0  0  0  0  0  0  0  0  0  0  0
   27.5098    0.6811   -7.9560 C   0  0  0  0  0  0  0  0  0  0  0  0
   28.1262   -0.5369   -7.6690 C   0  0  0  0  0  0  0  0  0  0  0  0
   27.6373   -1.6686   -8.2864 C   0  0  0  0  0  0  0  0  0  0  0  0
   26.5807   -1.6651   -9.1655 C   0  0  0  0  0  0  0  0  0  0  0  0
   25.9886   -0.4340   -9.4297 C   0  0  0  0  0  0  0  0  0  0  0  0
   24.8637   -0.3797  -10.3553 C   0  0  2  0  0  0  0  0  0  0  0  0
   23.7391   -1.3286   -9.8960 C   0  0  0  0  0  0  0  0  0  0  0  0
   22.5359   -1.2120  -10.7433 C   0  0  1  0  0  0  0  0  0  0  0  0
   21.4092   -0.4484  -10.2181 C   0  0  0  0  0  0  0  0  0  0  0  0
   20.5838    0.1573  -11.1736 C   0  0  0  0  0  0  0  0  0  0  0  0
   19.4919    0.9120  -10.8350 C   0  0  0  0  0  0  0  0  0  0  0  0
   19.1934    1.0824   -9.5065 C   0  0  0  0  0  0  0  0  0  0  0  0
   20.0054    0.4860   -8.5419 C   0  0  0  0  0  0  0  0  0  0  0  0
   19.6125    0.7077   -6.6973 Br  0  0  0  0  0  0  0  0  0  0  0  0
   21.1011   -0.2710   -8.8906 C   0  0  0  0  0  0  0  0  0  0  0  0
   22.8289   -0.7397  -12.0933 N   0  0  0  0  0  0  0  0  0  0  0  0
   24.1646   -0.8603  -12.5620 C   0  0  0  0  0  0  0  0  0  0  0  0
   24.6942   -1.1383  -13.7925 N   0  0  0  0  0  0  0  0  0  0  0  0
   26.0041   -1.1239  -13.6864 N   0  0  0  0  0  0  0  0  0  0  0  0
   26.2926   -0.8485  -12.4407 N   0  0  0  0  0  0  0  0  0  0  0  0
   25.2045   -0.6840  -11.7363 N   0  0  0  0  0  0  0  0  0  0  0  0
  1  2  1  0
  2  3  2  0
  3  4  1  0
  4  5  2  0
  5  6  1  0
  6  7  2  0
  8  7  1  1
  9  8  1  6
  9 10  1  0
 10 11  1  1
 11 12  2  0
 12 13  1  0
 13 14  2  0
 14 15  1  0
 15 16  1  0
 15 17  2  0
 10 18  1  0
 18 19  1  0
 19 20  2  0
 20 21  1  0
 21 22  2  0
 22 23  1  0
  7  2  1  0
 23  8  1  0
 17 11  1  0
 23 19  1  0
M  END
$$$$
