_rank13
     RDKit          3D

 22 25  0  0  0  0  0  0  0  0999 V2000
   18.1819    0.6733   -7.9443 I   0  0  0  0  0  0  0  0  0  0  0  0
   19.5108    0.3847   -9.5399 C   0  0  0  0  0  0  0  0  0  0  0  0
   19.1607    0.8592  -10.7826 C   0  0  0  0  0  0  0  0  0  0  0  0
   20.0099    0.6821  -11.8329 C   0  0  0  0  0  0  0  0  0  0  0  0
   21.2119    0.0279  -11.6356 C   0  0  0  0  0  0  0  0  0  0  0  0
   21.5998   -0.4616  -10.4096 C   0  0  0  0  0  0  0  0  0  0  0  0
   22.8794   -1.1498  -10.2341 C   0  0  2  0  0  0  0  0  0  0  0  0
   23.9666   -0.2398   -9.6820 C   0  0  0  0  0  0  0  0  0  0  0  0
   25.2594   -1.0196   -9.7800 C   0  0  2  0  0  0  0  0  0  0  0  0
   26.3399   -0.4344   -8.9753 C   0  0  0  0  0  0  0  0  0  0  0  0
   27.0797   -1.2820   -8.1783 C   0  0  0  0  0  0  0  0  0  0  0  0
   28.1167   -0.8655   -7.3774 C   0  0  0  0  0  0  0  0  0  0  0  0
   28.4193    0.4776   -7.3844 C   0  0  0  0  0  0  0  0  0  0  0  0
   27.6852    1.3469   -8.1809 C   0  0  0  0  0  0  0  0  0  0  0  0
   26.6573    0.9056   -8.9692 C   0  0  0  0  0  0  0  0  0  0  0  0
   25.5963   -1.0787  -11.1963 N   0  0  0  0  0  0  0  0  0  0  0  0
   26.6785   -0.8376  -11.9107 N   0  0  0  0  0  0  0  0  0  0  0  0
   26.3550   -1.0753  -13.1668 N   0  0  0  0  0  0  0  0  0  0  0  0
   25.0909   -1.4630  -13.2723 N   0  0  0  0  0  0  0  0  0  0  0  0
   24.6161   -1.4636  -12.0257 C   0  0  0  0  0  0  0  0  0  0  0  0
   23.3550   -1.7746  -11.4525 N   0  0  0  0  0  0  0  0  0  0  0  0
   20.7245   -0.2708   -9.3619 C   0  0  0  0  0  0  0  0  0  0  0  0
  1  2  1  0
  2  3  2  0
  3  4  1  0
  4  5  2  0
  5  6  1  0
  7  6  1  6
  8  7  1  6
  8  9  1  0
  9 10  1  1
 10 11  2  0
 11 12  1  0
 12 13  2  0
 13 14  1  0
 14 15  2  0
  9 16  1  0
 16 17  1  0
 17 18  2  0
 18 19  1  0
 19 20  2  0
 20 21  1  0
  6 22  2  0
 22  2  1  0
 21  7  1  0
 15 10  1  0
 20 16  1  0
M  END
$$$$
