_rank1
     RDKit          3D

 23 26  0  0  0  0  0  0  0  0999 V2000
   27.1726   -1.7362  -11.1741 Cl  0  0  0  0  0  0  0  0  0  0  0  0
   26.9955   -1.0831   -9.5448 C   0  0  0  0  0  0  0  0  0  0  0  0
   27.9217   -1.4973   -8.6126 C   0  0  0  0  0  0  0  0  0  0  0  0
   27.8385   -1.0183   -7.3052 C   0  0  0  0  0  0  0  0  0  0  0  0
   26.8190   -0.1405   -7.0034 C   0  0  0  0  0  0  0  0  0  0  0  0
   25.8832    0.2880   -7.9142 C   0  0  0  0  0  0  0  0  0  0  0  0
   25.9947   -0.2088   -9.2091 C   0  0  0  0  0  0  0  0  0  0  0  0
   25.0254    0.2175  -10.2110 C   0  0  2  0  0  0  0  0  0  0  0  0
   24.1815   -0.9800  -10.6908 C   0  0  0  0  0  0  0  0  0  0  0  0
   23.1101   -0.5659  -11.6181 C   0  0  1  0  0  0  0  0  0  0  0  0
   21.7535   -0.4765  -11.0888 C   0  0  0  0  0  0  0  0  0  0  0  0
   21.3022    0.8129  -10.7807 C   0  0  0  0  0  0  0  0  0  0  0  0
   20.0550    1.0568  -10.2693 C   0  0  0  0  0  0  0  0  0  0  0  0
   19.2127   -0.0040  -10.0494 C   0  0  0  0  0  0  0  0  0  0  0  0
   19.6466   -1.2949  -10.3508 C   0  0  0  0  0  0  0  0  0  0  0  0
   18.4990   -2.7786  -10.0551 Br  0  0  0  0  0  0  0  0  0  0  0  0
   20.9018   -1.5314  -10.8645 C   0  0  0  0  0  0  0  0  0  0  0  0
   23.4143    0.6721  -12.3296 N   0  0  0  0  0  0  0  0  0  0  0  0
   24.7734    1.0803  -12.3976 C   0  0  0  0  0  0  0  0  0  0  0  0
   25.5075    1.7019  -13.3706 N   0  0  0  0  0  0  0  0  0  0  0  0
   26.7322    1.8593  -12.9205 N   0  0  0  0  0  0  0  0  0  0  0  0
   26.7726    1.3583  -11.7129 N   0  0  0  0  0  0  0  0  0  0  0  0
   25.6066    0.8801  -11.3681 N   0  0  0  0  0  0  0  0  0  0  0  0
  1  2  1  0
  2  3  2  0
  3  4  1  0
  4  5  2  0
  5  6  1  0
  6  7  2  0
  8  7  1  1
  9  8  1  6
  9 10  1  0
 10 11  1  1
 11 12  2  0
 12 13  1  0
 13 14  2  0
 14 15  1  0
 15 16  1  0
 15 17  2  0
 10 18  1  0
 18 19  1  0
 19 20  2  0
 20 21  1  0
 21 22  2  0
 22 23  1  0
  7  2  1  0
 23  8  1  0
 17 11  1  0
 23 19  1  0
M  END
$$$$
