_rank7
     RDKit          3D

 22 25  0  0  0  0  0  0  0  0999 V2000
   18.8551    1.4471   -8.3450 I   0  0  0  0  0  0  0  0  0  0  0  0
   19.7409    0.4866   -9.9844 C   0  0  0  0  0  0  0  0  0  0  0  0
   19.0084    0.3467  -11.1403 C   0  0  0  0  0  0  0  0  0  0  0  0
   19.5652   -0.2744  -12.2173 C   0  0  0  0  0  0  0  0  0  0  0  0
   20.8587   -0.7554  -12.1340 C   0  0  0  0  0  0  0  0  0  0  0  0
   21.6250   -0.6361  -10.9975 C   0  0  0  0  0  0  0  0  0  0  0  0
   22.9917   -1.1564  -10.9418 C   0  0  2  0  0  0  0  0  0  0  0  0
   23.9375   -0.2463  -10.1723 C   0  0  0  0  0  0  0  0  0  0  0  0
   25.3294   -0.7924  -10.4031 C   0  0  2  0  0  0  0  0  0  0  0  0
   26.3168   -0.2526   -9.4591 C   0  0  0  0  0  0  0  0  0  0  0  0
   27.0389    0.8559   -9.8473 C   0  0  0  0  0  0  0  0  0  0  0  0
   27.9919    1.4598   -9.0616 C   0  0  0  0  0  0  0  0  0  0  0  0
   28.2249    0.9129   -7.8198 C   0  0  0  0  0  0  0  0  0  0  0  0
   27.5073   -0.2038   -7.4110 C   0  0  0  0  0  0  0  0  0  0  0  0
   26.5637   -0.7856   -8.2135 C   0  0  0  0  0  0  0  0  0  0  0  0
   25.6654   -0.4869  -11.7876 N   0  0  0  0  0  0  0  0  0  0  0  0
   26.6981    0.0586  -12.4004 N   0  0  0  0  0  0  0  0  0  0  0  0
   26.4075    0.0620  -13.6867 N   0  0  0  0  0  0  0  0  0  0  0  0
   25.2127   -0.4686  -13.9107 N   0  0  0  0  0  0  0  0  0  0  0  0
   24.7481   -0.8137  -12.7087 C   0  0  0  0  0  0  0  0  0  0  0  0
   23.5479   -1.4208  -12.2539 N   0  0  0  0  0  0  0  0  0  0  0  0
   21.0407   -0.0042   -9.9207 C   0  0  0  0  0  0  0  0  0  0  0  0
  1  2  1  0
  2  3  2  0
  3  4  1  0
  4  5  2  0
  5  6  1  0
  7  6  1  6
  8  7  1  6
  8  9  1  0
  9 10  1  1
 10 11  2  0
 11 12  1  0
 12 13  2  0
 13 14  1  0
 14 15  2  0
  9 16  1  0
 16 17  1  0
 17 18  2  0
 18 19  1  0
 19 20  2  0
 20 21  1  0
  6 22  2  0
 22  2  1  0
 21  7  1  0
 15 10  1  0
 20 16  1  0
M  END
$$$$
