_rank16
     RDKit          3D

 22 25  0  0  0  0  0  0  0  0999 V2000
   29.3587   -1.7579  -10.3023 I   0  0  0  0  0  0  0  0  0  0  0  0
   27.7784   -0.8568   -9.2602 C   0  0  0  0  0  0  0  0  0  0  0  0
   27.9370   -0.5982   -7.9186 C   0  0  0  0  0  0  0  0  0  0  0  0
   26.9223   -0.0132   -7.2229 C   0  0  0  0  0  0  0  0  0  0  0  0
   25.7473    0.3125   -7.8746 C   0  0  0  0  0  0  0  0  0  0  0  0
   25.5482    0.0710   -9.2144 C   0  0  0  0  0  0  0  0  0  0  0  0
   24.2919    0.4280   -9.8747 C   0  0  2  0  0  0  0  0  0  0  0  0
   23.2482   -0.6759   -9.7910 C   0  0  0  0  0  0  0  0  0  0  0  0
   22.1170   -0.2569  -10.7042 C   0  0  2  0  0  0  0  0  0  0  0  0
   20.8858   -1.0246  -10.4750 C   0  0  0  0  0  0  0  0  0  0  0  0
   19.8851   -0.4298   -9.7363 C   0  0  0  0  0  0  0  0  0  0  0  0
   18.6852   -1.0363   -9.4487 C   0  0  0  0  0  0  0  0  0  0  0  0
   18.4895   -2.3098   -9.9341 C   0  0  0  0  0  0  0  0  0  0  0  0
   19.4862   -2.9254  -10.6803 C   0  0  0  0  0  0  0  0  0  0  0  0
   20.6720   -2.2986  -10.9521 C   0  0  0  0  0  0  0  0  0  0  0  0
   22.6134   -0.4041  -12.0661 N   0  0  0  0  0  0  0  0  0  0  0  0
   22.1625   -0.9687  -13.1696 N   0  0  0  0  0  0  0  0  0  0  0  0
   23.0809   -0.7643  -14.0935 N   0  0  0  0  0  0  0  0  0  0  0  0
   24.1088   -0.0819  -13.6065 N   0  0  0  0  0  0  0  0  0  0  0  0
   23.8091    0.1432  -12.3263 C   0  0  0  0  0  0  0  0  0  0  0  0
   24.4726    0.8082  -11.2617 N   0  0  0  0  0  0  0  0  0  0  0  0
   26.5885   -0.5216   -9.8977 C   0  0  0  0  0  0  0  0  0  0  0  0
  1  2  1  0
  2  3  2  0
  3  4  1  0
  4  5  2  0
  5  6  1  0
  7  6  1  6
  8  7  1  6
  8  9  1  0
  9 10  1  6
 10 11  2  0
 11 12  1  0
 12 13  2  0
 13 14  1  0
 14 15  2  0
  9 16  1  0
 16 17  1  0
 17 18  2  0
 18 19  1  0
 19 20  2  0
 20 21  1  0
  6 22  2  0
 22  2  1  0
 21  7  1  0
 15 10  1  0
 20 16  1  0
M  END
$$$$
