_rank4
     RDKit          3D

 22 25  0  0  0  0  0  0  0  0999 V2000
   18.9602    2.3254  -10.0682 I   0  0  0  0  0  0  0  0  0  0  0  0
   19.8337    0.4567  -10.4425 C   0  0  0  0  0  0  0  0  0  0  0  0
   19.0372   -0.6638  -10.3958 C   0  0  0  0  0  0  0  0  0  0  0  0
   19.5851   -1.8877  -10.6360 C   0  0  0  0  0  0  0  0  0  0  0  0
   20.9338   -1.9869  -10.9233 C   0  0  0  0  0  0  0  0  0  0  0  0
   21.7649   -0.8919  -10.9796 C   0  0  0  0  0  0  0  0  0  0  0  0
   23.1890   -1.0310  -11.2865 C   0  0  2  0  0  0  0  0  0  0  0  0
   24.0837   -0.6451  -10.1180 C   0  0  0  0  0  0  0  0  0  0  0  0
   25.4961   -0.6164  -10.6596 C   0  0  2  0  0  0  0  0  0  0  0  0
   26.5127   -0.6084   -9.5994 C   0  0  0  0  0  0  0  0  0  0  0  0
   27.1306   -1.8019   -9.2917 C   0  0  0  0  0  0  0  0  0  0  0  0
   28.0971   -1.9335   -8.3228 C   0  0  0  0  0  0  0  0  0  0  0  0
   28.4556   -0.7986   -7.6307 C   0  0  0  0  0  0  0  0  0  0  0  0
   27.8442    0.4129   -7.9266 C   0  0  0  0  0  0  0  0  0  0  0  0
   26.8843    0.5161   -8.8966 C   0  0  0  0  0  0  0  0  0  0  0  0
   25.5831    0.5590  -11.5162 N   0  0  0  0  0  0  0  0  0  0  0  0
   26.4237    1.5683  -11.6360 N   0  0  0  0  0  0  0  0  0  0  0  0
   25.9575    2.3265  -12.6091 N   0  0  0  0  0  0  0  0  0  0  0  0
   24.8382    1.8254  -13.1144 N   0  0  0  0  0  0  0  0  0  0  0  0
   24.6058    0.7096  -12.4212 C   0  0  0  0  0  0  0  0  0  0  0  0
   23.5885   -0.2801  -12.4602 N   0  0  0  0  0  0  0  0  0  0  0  0
   21.1885    0.3358  -10.7332 C   0  0  0  0  0  0  0  0  0  0  0  0
  1  2  1  0
  2  3  2  0
  3  4  1  0
  4  5  2  0
  5  6  1  0
  7  6  1  1
  8  7  1  6
  8  9  1  0
  9 10  1  1
 10 11  2  0
 11 12  1  0
 12 13  2  0
 13 14  1  0
 14 15  2  0
  9 16  1  0
 16 17  1  0
 17 18  2  0
 18 19  1  0
 19 20  2  0
 20 21  1  0
  6 22  2  0
 22  2  1  0
 21  7  1  0
 15 10  1  0
 20 16  1  0
M  END
$$$$
