_rank5
     RDKit          3D

 22 25  0  0  0  0  0  0  0  0999 V2000
   19.0433    2.4113  -10.5422 I   0  0  0  0  0  0  0  0  0  0  0  0
   19.8760    0.4912  -10.4221 C   0  0  0  0  0  0  0  0  0  0  0  0
   19.0677   -0.5545  -10.0409 C   0  0  0  0  0  0  0  0  0  0  0  0
   19.5890   -1.8103   -9.9565 C   0  0  0  0  0  0  0  0  0  0  0  0
   20.9231   -2.0165  -10.2551 C   0  0  0  0  0  0  0  0  0  0  0  0
   21.7653   -0.9988  -10.6399 C   0  0  0  0  0  0  0  0  0  0  0  0
   23.1733   -1.2507  -10.9492 C   0  0  2  0  0  0  0  0  0  0  0  0
   24.1124   -0.7670   -9.8541 C   0  0  0  0  0  0  0  0  0  0  0  0
   25.5119   -0.8818  -10.4175 C   0  0  2  0  0  0  0  0  0  0  0  0
   26.5513   -0.7926   -9.3834 C   0  0  0  0  0  0  0  0  0  0  0  0
   27.1946   -1.9554   -9.0161 C   0  0  0  0  0  0  0  0  0  0  0  0
   28.1842   -2.0120   -8.0633 C   0  0  0  0  0  0  0  0  0  0  0  0
   28.5397   -0.8308   -7.4518 C   0  0  0  0  0  0  0  0  0  0  0  0
   27.9028    0.3508   -7.8087 C   0  0  0  0  0  0  0  0  0  0  0  0
   26.9204    0.3791   -8.7609 C   0  0  0  0  0  0  0  0  0  0  0  0
   25.6384    0.1690  -11.4189 N   0  0  0  0  0  0  0  0  0  0  0  0
   26.5256    1.1092  -11.6805 N   0  0  0  0  0  0  0  0  0  0  0  0
   26.0762    1.7610  -12.7351 N   0  0  0  0  0  0  0  0  0  0  0  0
   24.9221    1.2594  -13.1541 N   0  0  0  0  0  0  0  0  0  0  0  0
   24.6497    0.2545  -12.3200 C   0  0  0  0  0  0  0  0  0  0  0  0
   23.5834   -0.6771  -12.2156 N   0  0  0  0  0  0  0  0  0  0  0  0
   21.2157    0.2629  -10.7183 C   0  0  0  0  0  0  0  0  0  0  0  0
  1  2  1  0
  2  3  2  0
  3  4  1  0
  4  5  2  0
  5  6  1  0
  7  6  1  1
  8  7  1  6
  8  9  1  0
  9 10  1  1
 10 11  2  0
 11 12  1  0
 12 13  2  0
 13 14  1  0
 14 15  2  0
  9 16  1  0
 16 17  1  0
 17 18  2  0
 18 19  1  0
 19 20  2  0
 20 21  1  0
  6 22  2  0
 22  2  1  0
 21  7  1  0
 15 10  1  0
 20 16  1  0
M  END
$$$$
