_rank12
     RDKit          3D

 25 28  0  0  0  0  0  0  0  0999 V2000
   18.6126   -3.8547  -10.8234 F   0  0  0  0  0  0  0  0  0  0  0  0
   19.2536   -2.6938  -10.4807 C   0  0  0  0  0  0  0  0  0  0  0  0
   18.6309   -1.7843   -9.6518 C   0  0  0  0  0  0  0  0  0  0  0  0
   19.3157   -0.6313   -9.3340 C   0  0  0  0  0  0  0  0  0  0  0  0
   20.5792   -0.3951   -9.8269 C   0  0  0  0  0  0  0  0  0  0  0  0
   21.2411    0.7529   -9.5005 F   0  0  0  0  0  0  0  0  0  0  0  0
   21.2246   -1.2969  -10.6627 C   0  0  0  0  0  0  0  0  0  0  0  0
   22.5889   -1.0656  -11.2007 C   0  0  2  0  0  0  0  0  0  0  0  0
   23.6676   -1.2344  -10.1841 C   0  0  0  0  0  0  0  0  0  0  0  0
   24.9931   -0.9210  -10.8682 C   0  0  2  0  0  0  0  0  0  0  0  0
   26.1423   -1.1600   -9.9645 C   0  0  0  0  0  0  0  0  0  0  0  0
   26.9451   -2.2468  -10.1463 C   0  0  0  0  0  0  0  0  0  0  0  0
   28.0323   -2.4859   -9.3065 C   0  0  0  0  0  0  0  0  0  0  0  0
   28.3357   -1.6427   -8.2703 C   0  0  0  0  0  0  0  0  0  0  0  0
   27.5313   -0.5393   -8.0751 C   0  0  0  0  0  0  0  0  0  0  0  0
   27.9474    0.6304   -6.6429 Br  0  0  0  0  0  0  0  0  0  0  0  0
   26.4513   -0.3081   -8.9154 C   0  0  0  0  0  0  0  0  0  0  0  0
   24.9749    0.4196  -11.3836 N   0  0  0  0  0  0  0  0  0  0  0  0
   23.8080    0.8979  -12.0472 C   0  0  0  0  0  0  0  0  0  0  0  0
   23.5232    1.9678  -12.8040 N   0  0  0  0  0  0  0  0  0  0  0  0
   22.2534    1.8746  -13.1430 N   0  0  0  0  0  0  0  0  0  0  0  0
   21.7244    0.7806  -12.6257 N   0  0  0  0  0  0  0  0  0  0  0  0
   22.6923    0.1760  -11.9455 N   0  0  0  0  0  0  0  0  0  0  0  0
   20.5198   -2.4485  -10.9701 C   0  0  0  0  0  0  0  0  0  0  0  0
   21.1325   -3.3469  -11.7884 F   0  0  0  0  0  0  0  0  0  0  0  0
  1  2  1  0
  2  3  2  0
  3  4  1  0
  4  5  2  0
  5  6  1  0
  5  7  1  0
  8  7  1  1
  9  8  1  6
  9 10  1  0
 10 11  1  1
 11 12  2  0
 12 13  1  0
 13 14  2  0
 14 15  1  0
 15 16  1  0
 15 17  2  0
 10 18  1  0
 18 19  1  0
 19 20  2  0
 20 21  1  0
 21 22  2  0
 22 23  1  0
  7 24  2  0
 24 25  1  0
 24  2  1  0
 23  8  1  0
 17 11  1  0
 23 19  1  0
M  END
$$$$
