_rank11
     RDKit          3D

 25 28  0  0  0  0  0  0  0  0999 V2000
   27.3930   -0.5076  -14.7976 F   0  0  0  0  0  0  0  0  0  0  0  0
   27.3057   -0.0424  -13.5123 C   0  0  0  0  0  0  0  0  0  0  0  0
   28.1935    0.9141  -13.0662 C   0  0  0  0  0  0  0  0  0  0  0  0
   28.0658    1.3522  -11.7658 C   0  0  0  0  0  0  0  0  0  0  0  0
   27.0848    0.8522  -10.9394 C   0  0  0  0  0  0  0  0  0  0  0  0
   26.9745    1.2988   -9.6546 F   0  0  0  0  0  0  0  0  0  0  0  0
   26.1808   -0.1110  -11.3677 C   0  0  0  0  0  0  0  0  0  0  0  0
   25.1114   -0.6597  -10.4960 C   0  0  2  0  0  0  0  0  0  0  0  0
   23.7377   -0.2451  -10.9043 C   0  0  0  0  0  0  0  0  0  0  0  0
   22.7621   -0.8418   -9.8966 C   0  0  2  0  0  0  0  0  0  0  0  0
   21.3556   -0.5709  -10.2741 C   0  0  0  0  0  0  0  0  0  0  0  0
   20.7229    0.5451   -9.8125 C   0  0  0  0  0  0  0  0  0  0  0  0
   19.4000    0.8169  -10.1596 C   0  0  0  0  0  0  0  0  0  0  0  0
   18.6865   -0.0225  -10.9740 C   0  0  0  0  0  0  0  0  0  0  0  0
   19.3147   -1.1554  -11.4479 C   0  0  0  0  0  0  0  0  0  0  0  0
   18.3317   -2.3194  -12.5753 Br  0  0  0  0  0  0  0  0  0  0  0  0
   20.6317   -1.4187  -11.0982 C   0  0  0  0  0  0  0  0  0  0  0  0
   23.0719   -0.3712   -8.5753 N   0  0  0  0  0  0  0  0  0  0  0  0
   24.4326   -0.3083   -8.1564 C   0  0  0  0  0  0  0  0  0  0  0  0
   25.0518   -0.1309   -6.9801 N   0  0  0  0  0  0  0  0  0  0  0  0
   26.3475   -0.1667   -7.2159 N   0  0  0  0  0  0  0  0  0  0  0  0
   26.5695   -0.3610   -8.5032 N   0  0  0  0  0  0  0  0  0  0  0  0
   25.3784   -0.4485   -9.0849 N   0  0  0  0  0  0  0  0  0  0  0  0
   26.3261   -0.5379  -12.6770 C   0  0  0  0  0  0  0  0  0  0  0  0
   25.4513   -1.4822  -13.1187 F   0  0  0  0  0  0  0  0  0  0  0  0
  1  2  1  0
  2  3  2  0
  3  4  1  0
  4  5  2  0
  5  6  1  0
  5  7  1  0
  8  7  1  6
  9  8  1  6
  9 10  1  0
 10 11  1  6
 11 12  2  0
 12 13  1  0
 13 14  2  0
 14 15  1  0
 15 16  1  0
 15 17  2  0
 10 18  1  0
 18 19  1  0
 19 20  2  0
 20 21  1  0
 21 22  2  0
 22 23  1  0
  7 24  2  0
 24 25  1  0
 24  2  1  0
 23  8  1  0
 17 11  1  0
 23 19  1  0
M  END
$$$$
