_rank13
     RDKit          3D

 25 28  0  0  0  0  0  0  0  0999 V2000
   18.9963    1.8881   -9.9203 F   0  0  0  0  0  0  0  0  0  0  0  0
   19.4152    0.6073  -10.1657 C   0  0  0  0  0  0  0  0  0  0  0  0
   18.5057   -0.4292  -10.1418 C   0  0  0  0  0  0  0  0  0  0  0  0
   18.9739   -1.7003  -10.3959 C   0  0  0  0  0  0  0  0  0  0  0  0
   20.3047   -1.9281  -10.6648 C   0  0  0  0  0  0  0  0  0  0  0  0
   20.7489   -3.1942  -10.9139 F   0  0  0  0  0  0  0  0  0  0  0  0
   21.2372   -0.8995  -10.6937 C   0  0  0  0  0  0  0  0  0  0  0  0
   22.6756   -1.1213  -10.9874 C   0  0  2  0  0  0  0  0  0  0  0  0
   23.5809   -0.7227   -9.8706 C   0  0  0  0  0  0  0  0  0  0  0  0
   25.0125   -0.9628  -10.3352 C   0  0  2  0  0  0  0  0  0  0  0  0
   25.9886   -0.6922   -9.2543 C   0  0  0  0  0  0  0  0  0  0  0  0
   25.5878   -0.6903   -7.9511 C   0  0  0  0  0  0  0  0  0  0  0  0
   26.4935   -0.4397   -6.9209 C   0  0  0  0  0  0  0  0  0  0  0  0
   27.8156   -0.1864   -7.1756 C   0  0  0  0  0  0  0  0  0  0  0  0
   28.2343   -0.1852   -8.4899 C   0  0  0  0  0  0  0  0  0  0  0  0
   30.0626    0.1643   -8.8471 Br  0  0  0  0  0  0  0  0  0  0  0  0
   27.3268   -0.4358   -9.5096 C   0  0  0  0  0  0  0  0  0  0  0  0
   25.2810   -0.1921  -11.5172 N   0  0  0  0  0  0  0  0  0  0  0  0
   24.2988   -0.1270  -12.5478 C   0  0  0  0  0  0  0  0  0  0  0  0
   24.2901    0.3004  -13.8189 N   0  0  0  0  0  0  0  0  0  0  0  0
   23.0726    0.1063  -14.2837 N   0  0  0  0  0  0  0  0  0  0  0  0
   22.3098   -0.4301  -13.3486 N   0  0  0  0  0  0  0  0  0  0  0  0
   23.0740   -0.5739  -12.2714 N   0  0  0  0  0  0  0  0  0  0  0  0
   20.7469    0.3695  -10.4358 C   0  0  0  0  0  0  0  0  0  0  0  0
   21.6430    1.3935  -10.4583 F   0  0  0  0  0  0  0  0  0  0  0  0
  1  2  1  0
  2  3  2  0
  3  4  1  0
  4  5  2  0
  5  6  1  0
  5  7  1  0
  8  7  1  1
  9  8  1  6
  9 10  1  0
 10 11  1  1
 11 12  2  0
 12 13  1  0
 13 14  2  0
 14 15  1  0
 15 16  1  0
 15 17  2  0
 10 18  1  0
 18 19  1  0
 19 20  2  0
 20 21  1  0
 21 22  2  0
 22 23  1  0
  7 24  2  0
 24 25  1  0
 24  2  1  0
 23  8  1  0
 17 11  1  0
 23 19  1  0
M  END
$$$$
