_rank16
     RDKit          3D

 25 28  0  0  0  0  0  0  0  0999 V2000
   17.2671   -2.1721   -9.7391 F   0  0  0  0  0  0  0  0  0  0  0  0
   18.4486   -2.4397  -10.3784 C   0  0  0  0  0  0  0  0  0  0  0  0
   18.6144   -3.6371  -11.0423 C   0  0  0  0  0  0  0  0  0  0  0  0
   19.8200   -3.8608  -11.6715 C   0  0  0  0  0  0  0  0  0  0  0  0
   20.8252   -2.9208  -11.6389 C   0  0  0  0  0  0  0  0  0  0  0  0
   22.0121   -3.1611  -12.2682 F   0  0  0  0  0  0  0  0  0  0  0  0
   20.6797   -1.7090  -10.9764 C   0  0  0  0  0  0  0  0  0  0  0  0
   21.7477   -0.6786  -10.9334 C   0  0  2  0  0  0  0  0  0  0  0  0
   22.9949   -1.1399  -10.2573 C   0  0  0  0  0  0  0  0  0  0  0  0
   23.9704    0.0312  -10.2499 C   0  0  2  0  0  0  0  0  0  0  0  0
   25.2845   -0.3581   -9.6879 C   0  0  0  0  0  0  0  0  0  0  0  0
   25.7084    0.1676   -8.5035 C   0  0  0  0  0  0  0  0  0  0  0  0
   26.9413   -0.1894   -7.9588 C   0  0  0  0  0  0  0  0  0  0  0  0
   27.7722   -1.0780   -8.5887 C   0  0  0  0  0  0  0  0  0  0  0  0
   27.3555   -1.6174   -9.7880 C   0  0  0  0  0  0  0  0  0  0  0  0
   28.5014   -2.8476  -10.6631 Br  0  0  0  0  0  0  0  0  0  0  0  0
   26.1268   -1.2573  -10.3235 C   0  0  0  0  0  0  0  0  0  0  0  0
   23.3912    1.1485   -9.5576 N   0  0  0  0  0  0  0  0  0  0  0  0
   22.0252    1.4826   -9.7887 C   0  0  0  0  0  0  0  0  0  0  0  0
   21.2473    2.5348   -9.4950 N   0  0  0  0  0  0  0  0  0  0  0  0
   20.0472    2.2734   -9.9718 N   0  0  0  0  0  0  0  0  0  0  0  0
   20.0394    1.0899  -10.5580 N   0  0  0  0  0  0  0  0  0  0  0  0
   21.2693    0.6010  -10.4427 N   0  0  0  0  0  0  0  0  0  0  0  0
   19.4615   -1.5037  -10.3507 C   0  0  0  0  0  0  0  0  0  0  0  0
   19.2963   -0.3230   -9.6945 F   0  0  0  0  0  0  0  0  0  0  0  0
  1  2  1  0
  2  3  2  0
  3  4  1  0
  4  5  2  0
  5  6  1  0
  5  7  1  0
  8  7  1  1
  9  8  1  6
  9 10  1  0
 10 11  1  1
 11 12  2  0
 12 13  1  0
 13 14  2  0
 14 15  1  0
 15 16  1  0
 15 17  2  0
 10 18  1  0
 18 19  1  0
 19 20  2  0
 20 21  1  0
 21 22  2  0
 22 23  1  0
  7 24  2  0
 24 25  1  0
 24  2  1  0
 23  8  1  0
 17 11  1  0
 23 19  1  0
M  END
$$$$
