_rank10
     RDKit          3D

 20 22  0  0  0  0  0  0  0  0999 V2000
   27.3812    0.1662  -12.5865 O   0  0  0  0  0  0  0  0  0  0  0  0
   26.2096    0.0297  -12.1787 N   0  0  0  0  0  4  0  0  0  0  0  0
   25.1459    0.0169  -13.0492 O   0  0  0  0  0  1  0  0  0  0  0  0
   25.9286   -0.1207  -10.7986 C   0  0  0  0  0  0  0  0  0  0  0  0
   24.6126   -0.3706  -10.4079 C   0  0  0  0  0  0  0  0  0  0  0  0
   23.6263   -0.4725  -11.4123 N   0  0  0  0  0  0  0  0  0  0  0  0
   22.2405   -0.4571  -11.1101 C   0  0  0  0  0  0  0  0  0  0  0  0
   21.4117   -1.3959  -11.6611 C   0  0  0  0  0  0  0  0  0  0  0  0
   20.0484   -1.3962  -11.3886 C   0  0  0  0  0  0  0  0  0  0  0  0
   19.5262   -0.4348  -10.5488 C   0  0  0  0  0  0  0  0  0  0  0  0
   17.8263   -0.3899  -10.1636 Cl  0  0  0  0  0  0  0  0  0  0  0  0
   20.3425    0.5205   -9.9813 C   0  0  0  0  0  0  0  0  0  0  0  0
   21.7077    0.4926  -10.2764 C   0  0  0  0  0  0  0  0  0  0  0  0
   24.2798   -0.5192   -9.0754 C   0  0  0  0  0  0  0  0  0  0  0  0
   25.2307   -0.4277   -8.0786 C   0  0  0  0  0  0  0  0  0  0  0  0
   26.5293   -0.1814   -8.4681 C   0  0  0  0  0  0  0  0  0  0  0  0
   27.6892   -0.0334   -7.8039 N   0  0  0  0  0  0  0  0  0  0  0  0
   28.6467    0.1867   -8.6744 O   0  0  0  0  0  0  0  0  0  0  0  0
   28.2002    0.1965   -9.8841 N   0  0  0  0  0  0  0  0  0  0  0  0
   26.8644   -0.0320   -9.7997 C   0  0  0  0  0  0  0  0  0  0  0  0
  1  2  2  0
  2  3  1  0
  2  4  1  0
  4  5  2  0
  5  6  1  0
  6  7  1  0
  7  8  2  0
  8  9  1  0
  9 10  2  0
 10 11  1  0
 10 12  1  0
 12 13  2  0
  5 14  1  0
 14 15  2  0
 15 16  1  0
 16 17  2  0
 17 18  1  0
 18 19  1  0
 19 20  2  0
 20  4  1  0
 13  7  1  0
 20 16  1  0
M  CHG  2   2   1   3  -1
M  END
$$$$
