_rank8
     RDKit          3D

 25 28  0  0  0  0  0  0  0  0999 V2000
   28.9718    1.5226   -7.0182 F   0  0  0  0  0  0  0  0  0  0  0  0
   28.2065    0.5632   -7.6263 C   0  0  0  0  0  0  0  0  0  0  0  0
   28.4261   -0.7695   -7.3474 C   0  0  0  0  0  0  0  0  0  0  0  0
   27.6304   -1.6982   -7.9827 C   0  0  0  0  0  0  0  0  0  0  0  0
   26.6488   -1.3092   -8.8661 C   0  0  0  0  0  0  0  0  0  0  0  0
   25.8710   -2.2442   -9.4852 F   0  0  0  0  0  0  0  0  0  0  0  0
   26.4107    0.0267   -9.1615 C   0  0  0  0  0  0  0  0  0  0  0  0
   25.3539    0.4691  -10.1059 C   0  0  2  0  0  0  0  0  0  0  0  0
   24.0038   -0.0819   -9.7910 C   0  0  0  0  0  0  0  0  0  0  0  0
   23.0445    0.4183  -10.8648 C   0  0  2  0  0  0  0  0  0  0  0  0
   21.6496    0.0070  -10.5833 C   0  0  0  0  0  0  0  0  0  0  0  0
   20.8729    0.7437   -9.7389 C   0  0  0  0  0  0  0  0  0  0  0  0
   19.5572    0.3725   -9.4645 C   0  0  0  0  0  0  0  0  0  0  0  0
   18.9950   -0.7419  -10.0291 C   0  0  0  0  0  0  0  0  0  0  0  0
   19.7700   -1.4965  -10.8852 C   0  0  0  0  0  0  0  0  0  0  0  0
   18.9963   -3.0390  -11.6691 Br  0  0  0  0  0  0  0  0  0  0  0  0
   21.0785   -1.1202  -11.1536 C   0  0  0  0  0  0  0  0  0  0  0  0
   23.4891   -0.0141  -12.1604 N   0  0  0  0  0  0  0  0  0  0  0  0
   24.8747    0.0606  -12.4853 C   0  0  0  0  0  0  0  0  0  0  0  0
   25.5872   -0.0497  -13.6160 N   0  0  0  0  0  0  0  0  0  0  0  0
   26.8538    0.1142  -13.2925 N   0  0  0  0  0  0  0  0  0  0  0  0
   26.9670    0.3248  -11.9936 N   0  0  0  0  0  0  0  0  0  0  0  0
   25.7362    0.2910  -11.4948 N   0  0  0  0  0  0  0  0  0  0  0  0
   27.2207    0.9437   -8.5132 C   0  0  0  0  0  0  0  0  0  0  0  0
   27.0058    2.2592   -8.7878 F   0  0  0  0  0  0  0  0  0  0  0  0
  1  2  1  0
  2  3  2  0
  3  4  1  0
  4  5  2  0
  5  6  1  0
  5  7  1  0
  8  7  1  1
  9  8  1  6
  9 10  1  0
 10 11  1  1
 11 12  2  0
 12 13  1  0
 13 14  2  0
 14 15  1  0
 15 16  1  0
 15 17  2  0
 10 18  1  0
 18 19  1  0
 19 20  2  0
 20 21  1  0
 21 22  2  0
 22 23  1  0
  7 24  2  0
 24 25  1  0
 24  2  1  0
 23  8  1  0
 17 11  1  0
 23 19  1  0
M  END
$$$$
