_rank4
     RDKit          3D

 20 22  0  0  0  0  0  0  0  0999 V2000
   24.9241    0.2039  -12.9956 O   0  0  0  0  0  0  0  0  0  0  0  0
   25.9244    0.1202  -12.2541 N   0  0  0  0  0  4  0  0  0  0  0  0
   27.1991    0.2273  -12.7574 O   0  0  0  0  0  1  0  0  0  0  0  0
   25.7858   -0.0864  -10.8597 C   0  0  0  0  0  0  0  0  0  0  0  0
   24.6165   -0.6817  -10.3852 C   0  0  0  0  0  0  0  0  0  0  0  0
   23.6320   -1.0595  -11.3234 N   0  0  0  0  0  0  0  0  0  0  0  0
   22.2603   -0.7477  -11.1413 C   0  0  0  0  0  0  0  0  0  0  0  0
   21.8883    0.1648  -10.1922 C   0  0  0  0  0  0  0  0  0  0  0  0
   20.5498    0.4803   -9.9875 C   0  0  0  0  0  0  0  0  0  0  0  0
   19.5843   -0.1370  -10.7549 C   0  0  0  0  0  0  0  0  0  0  0  0
   17.8910    0.2242  -10.5495 Cl  0  0  0  0  0  0  0  0  0  0  0  0
   19.9358   -1.0591  -11.7179 C   0  0  0  0  0  0  0  0  0  0  0  0
   21.2897   -1.3535  -11.8975 C   0  0  0  0  0  0  0  0  0  0  0  0
   24.4246   -0.9011   -9.0350 C   0  0  0  0  0  0  0  0  0  0  0  0
   25.3773   -0.5430   -8.1021 C   0  0  0  0  0  0  0  0  0  0  0  0
   26.5311    0.0440   -8.5743 C   0  0  0  0  0  0  0  0  0  0  0  0
   27.6474    0.5100   -7.9867 N   0  0  0  0  0  0  0  0  0  0  0  0
   28.4495    0.9736   -8.9166 O   0  0  0  0  0  0  0  0  0  0  0  0
   27.9393    0.8483  -10.0942 N   0  0  0  0  0  0  0  0  0  0  0  0
   26.7250    0.2649   -9.9239 C   0  0  0  0  0  0  0  0  0  0  0  0
  1  2  2  0
  2  3  1  0
  2  4  1  0
  4  5  2  0
  5  6  1  0
  6  7  1  0
  7  8  2  0
  8  9  1  0
  9 10  2  0
 10 11  1  0
 10 12  1  0
 12 13  2  0
  5 14  1  0
 14 15  2  0
 15 16  1  0
 16 17  2  0
 17 18  1  0
 18 19  1  0
 19 20  2  0
 20  4  1  0
 13  7  1  0
 20 16  1  0
M  CHG  2   2   1   3  -1
M  END
$$$$
