_rank17
     RDKit          3D

 25 28  0  0  0  0  0  0  0  0999 V2000
   18.6711   -3.9946  -13.5775 F   0  0  0  0  0  0  0  0  0  0  0  0
   19.0767   -3.5144  -12.3606 C   0  0  0  0  0  0  0  0  0  0  0  0
   18.5411   -4.0378  -11.2024 C   0  0  0  0  0  0  0  0  0  0  0  0
   18.9809   -3.5235  -10.0019 C   0  0  0  0  0  0  0  0  0  0  0  0
   19.9236   -2.5211   -9.9595 C   0  0  0  0  0  0  0  0  0  0  0  0
   20.3464   -2.0250   -8.7606 F   0  0  0  0  0  0  0  0  0  0  0  0
   20.4758   -1.9797  -11.1130 C   0  0  0  0  0  0  0  0  0  0  0  0
   21.4978   -0.9030  -11.0908 C   0  0  2  0  0  0  0  0  0  0  0  0
   22.7675   -1.2995  -10.4154 C   0  0  0  0  0  0  0  0  0  0  0  0
   23.6908   -0.0868  -10.4302 C   0  0  2  0  0  0  0  0  0  0  0  0
   25.0236   -0.4101   -9.8703 C   0  0  0  0  0  0  0  0  0  0  0  0
   25.2961   -0.1619   -8.5576 C   0  0  0  0  0  0  0  0  0  0  0  0
   26.5443   -0.4620   -8.0134 C   0  0  0  0  0  0  0  0  0  0  0  0
   27.5420   -1.0152   -8.7721 C   0  0  0  0  0  0  0  0  0  0  0  0
   27.2795   -1.2712  -10.1019 C   0  0  0  0  0  0  0  0  0  0  0  0
   28.6566   -2.0369  -11.1553 Br  0  0  0  0  0  0  0  0  0  0  0  0
   26.0345   -0.9700  -10.6360 C   0  0  0  0  0  0  0  0  0  0  0  0
   23.0667    1.0139   -9.7504 N   0  0  0  0  0  0  0  0  0  0  0  0
   21.6862    1.2846   -9.9784 C   0  0  0  0  0  0  0  0  0  0  0  0
   20.8643    2.3058   -9.6953 N   0  0  0  0  0  0  0  0  0  0  0  0
   19.6744    1.9853  -10.1614 N   0  0  0  0  0  0  0  0  0  0  0  0
   19.7156    0.7943  -10.7307 N   0  0  0  0  0  0  0  0  0  0  0  0
   20.9663    0.3614  -10.6155 N   0  0  0  0  0  0  0  0  0  0  0  0
   20.0206   -2.5099  -12.3085 C   0  0  0  0  0  0  0  0  0  0  0  0
   20.5476   -1.9941  -13.4524 F   0  0  0  0  0  0  0  0  0  0  0  0
  1  2  1  0
  2  3  2  0
  3  4  1  0
  4  5  2  0
  5  6  1  0
  5  7  1  0
  8  7  1  1
  9  8  1  6
  9 10  1  0
 10 11  1  1
 11 12  2  0
 12 13  1  0
 13 14  2  0
 14 15  1  0
 15 16  1  0
 15 17  2  0
 10 18  1  0
 18 19  1  0
 19 20  2  0
 20 21  1  0
 21 22  2  0
 22 23  1  0
  7 24  2  0
 24 25  1  0
 24  2  1  0
 23  8  1  0
 17 11  1  0
 23 19  1  0
M  END
$$$$
