_rank8
     RDKit          3D

 20 22  0  0  0  0  0  0  0  0999 V2000
   27.2473   -0.1781  -12.5473 O   0  0  0  0  0  0  0  0  0  0  0  0
   26.0720   -0.1114  -12.1330 N   0  0  0  0  0  4  0  0  0  0  0  0
   25.0143    0.0259  -13.0003 O   0  0  0  0  0  1  0  0  0  0  0  0
   25.7797   -0.1777  -10.7487 C   0  0  0  0  0  0  0  0  0  0  0  0
   24.4604   -0.4021  -10.3542 C   0  0  0  0  0  0  0  0  0  0  0  0
   23.4819   -0.5635  -11.3584 N   0  0  0  0  0  0  0  0  0  0  0  0
   22.0940   -0.5498  -11.0658 C   0  0  0  0  0  0  0  0  0  0  0  0
   21.3733   -1.7113  -11.1230 C   0  0  0  0  0  0  0  0  0  0  0  0
   20.0101   -1.7225  -10.8503 C   0  0  0  0  0  0  0  0  0  0  0  0
   19.3772   -0.5435  -10.5164 C   0  0  0  0  0  0  0  0  0  0  0  0
   17.6720   -0.4970  -10.1559 Cl  0  0  0  0  0  0  0  0  0  0  0  0
   20.0835    0.6389  -10.4516 C   0  0  0  0  0  0  0  0  0  0  0  0
   21.4520    0.6152  -10.7319 C   0  0  0  0  0  0  0  0  0  0  0  0
   24.1167   -0.4693   -9.0179 C   0  0  0  0  0  0  0  0  0  0  0  0
   25.0597   -0.3186   -8.0208 C   0  0  0  0  0  0  0  0  0  0  0  0
   26.3618   -0.0978   -8.4141 C   0  0  0  0  0  0  0  0  0  0  0  0
   27.5166    0.0890   -7.7507 N   0  0  0  0  0  0  0  0  0  0  0  0
   28.4813    0.2548   -8.6253 O   0  0  0  0  0  0  0  0  0  0  0  0
   28.0445    0.1919   -9.8369 N   0  0  0  0  0  0  0  0  0  0  0  0
   26.7077   -0.0297   -9.7495 C   0  0  0  0  0  0  0  0  0  0  0  0
  1  2  2  0
  2  3  1  0
  2  4  1  0
  4  5  2  0
  5  6  1  0
  6  7  1  0
  7  8  2  0
  8  9  1  0
  9 10  2  0
 10 11  1  0
 10 12  1  0
 12 13  2  0
  5 14  1  0
 14 15  2  0
 15 16  1  0
 16 17  2  0
 17 18  1  0
 18 19  1  0
 19 20  2  0
 20  4  1  0
 13  7  1  0
 20 16  1  0
M  CHG  2   2   1   3  -1
M  END
$$$$
