_rank4
     RDKit          3D

 25 28  0  0  0  0  0  0  0  0999 V2000
   28.0238   -3.0649   -8.2179 F   0  0  0  0  0  0  0  0  0  0  0  0
   27.7467   -1.7345   -8.3887 C   0  0  0  0  0  0  0  0  0  0  0  0
   28.5088   -0.7853   -7.7404 C   0  0  0  0  0  0  0  0  0  0  0  0
   28.1928    0.5406   -7.9440 C   0  0  0  0  0  0  0  0  0  0  0  0
   27.1514    0.9059   -8.7671 C   0  0  0  0  0  0  0  0  0  0  0  0
   26.8542    2.2243   -8.9560 F   0  0  0  0  0  0  0  0  0  0  0  0
   26.3714   -0.0330   -9.4293 C   0  0  0  0  0  0  0  0  0  0  0  0
   25.2479    0.3383  -10.3262 C   0  0  2  0  0  0  0  0  0  0  0  0
   23.9787   -0.3848  -10.0231 C   0  0  0  0  0  0  0  0  0  0  0  0
   22.9423    0.0628  -11.0472 C   0  0  2  0  0  0  0  0  0  0  0  0
   21.6116   -0.5250  -10.7680 C   0  0  0  0  0  0  0  0  0  0  0  0
   21.1166   -0.5330   -9.4977 C   0  0  0  0  0  0  0  0  0  0  0  0
   19.8651   -1.0800   -9.2173 C   0  0  0  0  0  0  0  0  0  0  0  0
   19.0866   -1.6290  -10.2020 C   0  0  0  0  0  0  0  0  0  0  0  0
   19.5756   -1.6275  -11.4918 C   0  0  0  0  0  0  0  0  0  0  0  0
   18.5020   -2.3855  -12.8575 Br  0  0  0  0  0  0  0  0  0  0  0  0
   20.8221   -1.0808  -11.7628 C   0  0  0  0  0  0  0  0  0  0  0  0
   23.4025   -0.2365  -12.3746 N   0  0  0  0  0  0  0  0  0  0  0  0
   24.7618    0.0191  -12.7178 C   0  0  0  0  0  0  0  0  0  0  0  0
   25.4548    0.0606  -13.8652 N   0  0  0  0  0  0  0  0  0  0  0  0
   26.7013    0.3521  -13.5538 N   0  0  0  0  0  0  0  0  0  0  0  0
   26.8208    0.4967  -12.2465 N   0  0  0  0  0  0  0  0  0  0  0  0
   25.6146    0.2893  -11.7298 N   0  0  0  0  0  0  0  0  0  0  0  0
   26.7049   -1.3591   -9.2114 C   0  0  0  0  0  0  0  0  0  0  0  0
   25.9535   -2.2972   -9.8498 F   0  0  0  0  0  0  0  0  0  0  0  0
  1  2  1  0
  2  3  2  0
  3  4  1  0
  4  5  2  0
  5  6  1  0
  5  7  1  0
  8  7  1  1
  9  8  1  6
  9 10  1  0
 10 11  1  1
 11 12  2  0
 12 13  1  0
 13 14  2  0
 14 15  1  0
 15 16  1  0
 15 17  2  0
 10 18  1  0
 18 19  1  0
 19 20  2  0
 20 21  1  0
 21 22  2  0
 22 23  1  0
  7 24  2  0
 24 25  1  0
 24  2  1  0
 23  8  1  0
 17 11  1  0
 23 19  1  0
M  END
$$$$
