_rank5
     RDKit          3D

 20 22  0  0  0  0  0  0  0  0999 V2000
   27.4098    0.4778  -12.5613 O   0  0  0  0  0  0  0  0  0  0  0  0
   26.2426    0.2328  -12.1939 N   0  0  0  0  0  4  0  0  0  0  0  0
   25.2124    0.1387  -13.0991 O   0  0  0  0  0  1  0  0  0  0  0  0
   25.9322    0.0385  -10.8257 C   0  0  0  0  0  0  0  0  0  0  0  0
   24.6214   -0.2895  -10.4777 C   0  0  0  0  0  0  0  0  0  0  0  0
   23.6701   -0.4227  -11.5117 N   0  0  0  0  0  0  0  0  0  0  0  0
   22.2783   -0.4984  -11.2483 C   0  0  0  0  0  0  0  0  0  0  0  0
   21.6645    0.4931  -10.5328 C   0  0  0  0  0  0  0  0  0  0  0  0
   20.3038    0.4371  -10.2529 C   0  0  0  0  0  0  0  0  0  0  0  0
   19.5637   -0.6351  -10.7052 C   0  0  0  0  0  0  0  0  0  0  0  0
   17.8527   -0.7557  -10.3924 Cl  0  0  0  0  0  0  0  0  0  0  0  0
   20.1607   -1.6454  -11.4290 C   0  0  0  0  0  0  0  0  0  0  0  0
   21.5300   -1.5584  -11.6924 C   0  0  0  0  0  0  0  0  0  0  0  0
   24.2606   -0.4838   -9.1585 C   0  0  0  0  0  0  0  0  0  0  0  0
   25.1774   -0.3627   -8.1332 C   0  0  0  0  0  0  0  0  0  0  0  0
   26.4710   -0.0393   -8.4806 C   0  0  0  0  0  0  0  0  0  0  0  0
   27.6026    0.1564   -7.7807 N   0  0  0  0  0  0  0  0  0  0  0  0
   28.5703    0.4455   -8.6191 O   0  0  0  0  0  0  0  0  0  0  0  0
   28.1574    0.4571   -9.8406 N   0  0  0  0  0  0  0  0  0  0  0  0
   26.8341    0.1559   -9.7989 C   0  0  0  0  0  0  0  0  0  0  0  0
  1  2  2  0
  2  3  1  0
  2  4  1  0
  4  5  2  0
  5  6  1  0
  6  7  1  0
  7  8  2  0
  8  9  1  0
  9 10  2  0
 10 11  1  0
 10 12  1  0
 12 13  2  0
  5 14  1  0
 14 15  2  0
 15 16  1  0
 16 17  2  0
 17 18  1  0
 18 19  1  0
 19 20  2  0
 20  4  1  0
 13  7  1  0
 20 16  1  0
M  CHG  2   2   1   3  -1
M  END
$$$$
