_rank3
     RDKit          3D

 25 28  0  0  0  0  0  0  0  0999 V2000
   28.4240    1.1608   -6.7540 F   0  0  0  0  0  0  0  0  0  0  0  0
   27.9279    0.2745   -7.6730 C   0  0  0  0  0  0  0  0  0  0  0  0
   28.4056   -1.0189   -7.7071 C   0  0  0  0  0  0  0  0  0  0  0  0
   27.8753   -1.8746   -8.6484 C   0  0  0  0  0  0  0  0  0  0  0  0
   26.9014   -1.4530   -9.5253 C   0  0  0  0  0  0  0  0  0  0  0  0
   26.3889   -2.3155  -10.4503 F   0  0  0  0  0  0  0  0  0  0  0  0
   26.4064   -0.1556   -9.5085 C   0  0  0  0  0  0  0  0  0  0  0  0
   25.3523    0.3188  -10.4402 C   0  0  2  0  0  0  0  0  0  0  0  0
   24.0205   -0.3110  -10.2047 C   0  0  0  0  0  0  0  0  0  0  0  0
   23.0641    0.2356  -11.2583 C   0  0  2  0  0  0  0  0  0  0  0  0
   21.6823   -0.2542  -11.0459 C   0  0  0  0  0  0  0  0  0  0  0  0
   21.3816   -1.5695  -11.2417 C   0  0  0  0  0  0  0  0  0  0  0  0
   20.0869   -2.0480  -11.0443 C   0  0  0  0  0  0  0  0  0  0  0  0
   19.0701   -1.2198  -10.6479 C   0  0  0  0  0  0  0  0  0  0  0  0
   19.3607    0.1135  -10.4464 C   0  0  0  0  0  0  0  0  0  0  0  0
   17.9572    1.2630   -9.8975 Br  0  0  0  0  0  0  0  0  0  0  0  0
   20.6519    0.5820  -10.6446 C   0  0  0  0  0  0  0  0  0  0  0  0
   23.5547   -0.0710  -12.5730 N   0  0  0  0  0  0  0  0  0  0  0  0
   24.9425    0.0867  -12.8561 C   0  0  0  0  0  0  0  0  0  0  0  0
   25.6834    0.0984  -13.9738 N   0  0  0  0  0  0  0  0  0  0  0  0
   26.9345    0.2871  -13.6065 N   0  0  0  0  0  0  0  0  0  0  0  0
   27.0105    0.3954  -12.2925 N   0  0  0  0  0  0  0  0  0  0  0  0
   25.7718    0.2705  -11.8290 N   0  0  0  0  0  0  0  0  0  0  0  0
   26.9520    0.6882   -8.5557 C   0  0  0  0  0  0  0  0  0  0  0  0
   26.4824    1.9651   -8.5210 F   0  0  0  0  0  0  0  0  0  0  0  0
  1  2  1  0
  2  3  2  0
  3  4  1  0
  4  5  2  0
  5  6  1  0
  5  7  1  0
  8  7  1  1
  9  8  1  6
  9 10  1  0
 10 11  1  1
 11 12  2  0
 12 13  1  0
 13 14  2  0
 14 15  1  0
 15 16  1  0
 15 17  2  0
 10 18  1  0
 18 19  1  0
 19 20  2  0
 20 21  1  0
 21 22  2  0
 22 23  1  0
  7 24  2  0
 24 25  1  0
 24  2  1  0
 23  8  1  0
 17 11  1  0
 23 19  1  0
M  END
$$$$
