_rank17
     RDKit          3D

 20 22  0  0  0  0  0  0  0  0999 V2000
   25.6059   -0.7660  -12.7987 O   0  0  0  0  0  0  0  0  0  0  0  0
   26.4301   -0.7560  -11.8616 N   0  0  0  0  0  4  0  0  0  0  0  0
   27.7469   -1.0953  -12.0632 O   0  0  0  0  0  1  0  0  0  0  0  0
   26.0412   -0.3909  -10.5495 C   0  0  0  0  0  0  0  0  0  0  0  0
   24.6843   -0.2067  -10.2815 C   0  0  0  0  0  0  0  0  0  0  0  0
   23.7636   -0.4051  -11.3327 N   0  0  0  0  0  0  0  0  0  0  0  0
   22.3683   -0.5111  -11.1006 C   0  0  0  0  0  0  0  0  0  0  0  0
   21.7018    0.5060  -10.4736 C   0  0  0  0  0  0  0  0  0  0  0  0
   20.3364    0.4220  -10.2257 C   0  0  0  0  0  0  0  0  0  0  0  0
   19.6454   -0.7047  -10.6197 C   0  0  0  0  0  0  0  0  0  0  0  0
   17.9312   -0.8632  -10.3435 Cl  0  0  0  0  0  0  0  0  0  0  0  0
   20.2960   -1.7417  -11.2541 C   0  0  0  0  0  0  0  0  0  0  0  0
   21.6685   -1.6254  -11.4875 C   0  0  0  0  0  0  0  0  0  0  0  0
   24.2486    0.1563   -9.0219 C   0  0  0  0  0  0  0  0  0  0  0  0
   25.1328    0.3506   -7.9795 C   0  0  0  0  0  0  0  0  0  0  0  0
   26.4719    0.1671   -8.2476 C   0  0  0  0  0  0  0  0  0  0  0  0
   27.5916    0.2610   -7.5087 N   0  0  0  0  0  0  0  0  0  0  0  0
   28.6222   -0.0256   -8.2694 O   0  0  0  0  0  0  0  0  0  0  0  0
   28.2631   -0.3056   -9.4757 N   0  0  0  0  0  0  0  0  0  0  0  0
   26.9101   -0.1953   -9.5064 C   0  0  0  0  0  0  0  0  0  0  0  0
  1  2  2  0
  2  3  1  0
  2  4  1  0
  4  5  2  0
  5  6  1  0
  6  7  1  0
  7  8  2  0
  8  9  1  0
  9 10  2  0
 10 11  1  0
 10 12  1  0
 12 13  2  0
  5 14  1  0
 14 15  2  0
 15 16  1  0
 16 17  2  0
 17 18  1  0
 18 19  1  0
 19 20  2  0
 20  4  1  0
 13  7  1  0
 20 16  1  0
M  CHG  2   2   1   3  -1
M  END
$$$$
