_rank20
     RDKit          3D

 25 28  0  0  0  0  0  0  0  0999 V2000
   28.3736   -3.0637   -9.5321 F   0  0  0  0  0  0  0  0  0  0  0  0
   27.6614   -1.9018   -9.6688 C   0  0  0  0  0  0  0  0  0  0  0  0
   28.3135   -0.7304   -9.9926 C   0  0  0  0  0  0  0  0  0  0  0  0
   27.5546    0.4128  -10.1204 C   0  0  0  0  0  0  0  0  0  0  0  0
   26.1911    0.3870   -9.9316 C   0  0  0  0  0  0  0  0  0  0  0  0
   25.4570    1.5299  -10.0626 F   0  0  0  0  0  0  0  0  0  0  0  0
   25.5145   -0.7809   -9.6050 C   0  0  0  0  0  0  0  0  0  0  0  0
   24.0446   -0.8333   -9.4029 C   0  0  2  0  0  0  0  0  0  0  0  0
   23.3028   -1.4057  -10.5639 C   0  0  0  0  0  0  0  0  0  0  0  0
   21.8169   -1.3498  -10.2290 C   0  0  2  0  0  0  0  0  0  0  0  0
   20.9967   -1.9922  -11.2821 C   0  0  0  0  0  0  0  0  0  0  0  0
   20.8099   -1.3717  -12.4817 C   0  0  0  0  0  0  0  0  0  0  0  0
   20.0429   -1.9628  -13.4849 C   0  0  0  0  0  0  0  0  0  0  0  0
   19.4489   -3.1844  -13.3063 C   0  0  0  0  0  0  0  0  0  0  0  0
   19.6298   -3.8230  -12.0971 C   0  0  0  0  0  0  0  0  0  0  0  0
   18.8104   -5.5134  -11.8455 Br  0  0  0  0  0  0  0  0  0  0  0  0
   20.3950   -3.2282  -11.1037 C   0  0  0  0  0  0  0  0  0  0  0  0
   21.4199    0.0083   -9.9819 N   0  0  0  0  0  0  0  0  0  0  0  0
   22.2622    0.8521   -9.2011 C   0  0  0  0  0  0  0  0  0  0  0  0
   22.1188    2.0511   -8.6178 N   0  0  0  0  0  0  0  0  0  0  0  0
   23.2600    2.3299   -8.0212 N   0  0  0  0  0  0  0  0  0  0  0  0
   24.1218    1.3466   -8.2076 N   0  0  0  0  0  0  0  0  0  0  0  0
   23.4993    0.4301   -8.9408 N   0  0  0  0  0  0  0  0  0  0  0  0
   26.2949   -1.9182   -9.4812 C   0  0  0  0  0  0  0  0  0  0  0  0
   25.6531   -3.0748   -9.1611 F   0  0  0  0  0  0  0  0  0  0  0  0
  1  2  1  0
  2  3  2  0
  3  4  1  0
  4  5  2  0
  5  6  1  0
  5  7  1  0
  8  7  1  6
  9  8  1  6
  9 10  1  0
 10 11  1  6
 11 12  2  0
 12 13  1  0
 13 14  2  0
 14 15  1  0
 15 16  1  0
 15 17  2  0
 10 18  1  0
 18 19  1  0
 19 20  2  0
 20 21  1  0
 21 22  2  0
 22 23  1  0
  7 24  2  0
 24 25  1  0
 24  2  1  0
 23  8  1  0
 17 11  1  0
 23 19  1  0
M  END
$$$$
