_rank12
     RDKit          3D

 20 22  0  0  0  0  0  0  0  0999 V2000
   25.2562   -0.3564  -12.9767 O   0  0  0  0  0  0  0  0  0  0  0  0
   26.1045   -0.1523  -12.0845 N   0  0  0  0  0  4  0  0  0  0  0  0
   27.4202    0.1003  -12.3924 O   0  0  0  0  0  1  0  0  0  0  0  0
   25.7440   -0.1700  -10.7148 C   0  0  0  0  0  0  0  0  0  0  0  0
   24.3898   -0.2048  -10.3805 C   0  0  0  0  0  0  0  0  0  0  0  0
   23.4445   -0.2320  -11.4282 N   0  0  0  0  0  0  0  0  0  0  0  0
   22.0710   -0.4993  -11.1954 C   0  0  0  0  0  0  0  0  0  0  0  0
   21.1245    0.4125  -11.5758 C   0  0  0  0  0  0  0  0  0  0  0  0
   19.7728    0.1784  -11.3499 C   0  0  0  0  0  0  0  0  0  0  0  0
   19.3827   -0.9919  -10.7333 C   0  0  0  0  0  0  0  0  0  0  0  0
   17.7021   -1.3443  -10.4312 Cl  0  0  0  0  0  0  0  0  0  0  0  0
   20.3188   -1.9256  -10.3422 C   0  0  0  0  0  0  0  0  0  0  0  0
   21.6688   -1.6591  -10.5838 C   0  0  0  0  0  0  0  0  0  0  0  0
   23.9805   -0.2165   -9.0612 C   0  0  0  0  0  0  0  0  0  0  0  0
   24.8897   -0.1950   -8.0224 C   0  0  0  0  0  0  0  0  0  0  0  0
   26.2261   -0.1613   -8.3562 C   0  0  0  0  0  0  0  0  0  0  0  0
   27.3648   -0.1356   -7.6411 N   0  0  0  0  0  0  0  0  0  0  0  0
   28.3815   -0.1112   -8.4710 O   0  0  0  0  0  0  0  0  0  0  0  0
   27.9950   -0.1181   -9.7012 N   0  0  0  0  0  0  0  0  0  0  0  0
   26.6378   -0.1491   -9.6746 C   0  0  0  0  0  0  0  0  0  0  0  0
  1  2  2  0
  2  3  1  0
  2  4  1  0
  4  5  2  0
  5  6  1  0
  6  7  1  0
  7  8  2  0
  8  9  1  0
  9 10  2  0
 10 11  1  0
 10 12  1  0
 12 13  2  0
  5 14  1  0
 14 15  2  0
 15 16  1  0
 16 17  2  0
 17 18  1  0
 18 19  1  0
 19 20  2  0
 20  4  1  0
 13  7  1  0
 20 16  1  0
M  CHG  2   2   1   3  -1
M  END
$$$$
