_rank6
     RDKit          3D

 25 28  0  0  0  0  0  0  0  0999 V2000
   29.6109    1.1397   -8.3602 F   0  0  0  0  0  0  0  0  0  0  0  0
   28.4577    0.4007   -8.3778 C   0  0  0  0  0  0  0  0  0  0  0  0
   28.3125   -0.6664   -7.5163 C   0  0  0  0  0  0  0  0  0  0  0  0
   27.1343   -1.3794   -7.5699 C   0  0  0  0  0  0  0  0  0  0  0  0
   26.1354   -1.0380   -8.4535 C   0  0  0  0  0  0  0  0  0  0  0  0
   24.9758   -1.7565   -8.4914 F   0  0  0  0  0  0  0  0  0  0  0  0
   26.2605    0.0322   -9.3296 C   0  0  0  0  0  0  0  0  0  0  0  0
   25.1941    0.4220  -10.2862 C   0  0  2  0  0  0  0  0  0  0  0  0
   23.8419   -0.0842   -9.9108 C   0  0  0  0  0  0  0  0  0  0  0  0
   22.8716    0.3524  -11.0022 C   0  0  2  0  0  0  0  0  0  0  0  0
   21.4759   -0.0161  -10.6694 C   0  0  0  0  0  0  0  0  0  0  0  0
   20.7174    0.8021   -9.8858 C   0  0  0  0  0  0  0  0  0  0  0  0
   19.4013    0.4720   -9.5644 C   0  0  0  0  0  0  0  0  0  0  0  0
   18.8206   -0.6819  -10.0207 C   0  0  0  0  0  0  0  0  0  0  0  0
   19.5772   -1.5188  -10.8145 C   0  0  0  0  0  0  0  0  0  0  0  0
   18.7779   -3.1162  -11.4485 Br  0  0  0  0  0  0  0  0  0  0  0  0
   20.8862   -1.1831  -11.1301 C   0  0  0  0  0  0  0  0  0  0  0  0
   23.2876   -0.1788  -12.2703 N   0  0  0  0  0  0  0  0  0  0  0  0
   24.6684   -0.1490  -12.6220 C   0  0  0  0  0  0  0  0  0  0  0  0
   25.3597   -0.3512  -13.7532 N   0  0  0  0  0  0  0  0  0  0  0  0
   26.6339   -0.1840  -13.4627 N   0  0  0  0  0  0  0  0  0  0  0  0
   26.7724    0.1176  -12.1844 N   0  0  0  0  0  0  0  0  0  0  0  0
   25.5499    0.1386  -11.6647 N   0  0  0  0  0  0  0  0  0  0  0  0
   27.4515    0.7353   -9.2600 C   0  0  0  0  0  0  0  0  0  0  0  0
   27.5968    1.7883  -10.1099 F   0  0  0  0  0  0  0  0  0  0  0  0
  1  2  1  0
  2  3  2  0
  3  4  1  0
  4  5  2  0
  5  6  1  0
  5  7  1  0
  8  7  1  1
  9  8  1  6
  9 10  1  0
 10 11  1  1
 11 12  2  0
 12 13  1  0
 13 14  2  0
 14 15  1  0
 15 16  1  0
 15 17  2  0
 10 18  1  0
 18 19  1  0
 19 20  2  0
 20 21  1  0
 21 22  2  0
 22 23  1  0
  7 24  2  0
 24 25  1  0
 24  2  1  0
 23  8  1  0
 17 11  1  0
 23 19  1  0
M  END
$$$$
