_rank18
     RDKit          3D

 25 28  0  0  0  0  0  0  0  0999 V2000
   18.8923    2.1980   -9.7731 F   0  0  0  0  0  0  0  0  0  0  0  0
   19.2266    0.8701   -9.7412 C   0  0  0  0  0  0  0  0  0  0  0  0
   18.3305   -0.0520   -9.2426 C   0  0  0  0  0  0  0  0  0  0  0  0
   18.7111   -1.3765   -9.2319 C   0  0  0  0  0  0  0  0  0  0  0  0
   19.9444   -1.7666   -9.7032 C   0  0  0  0  0  0  0  0  0  0  0  0
   20.3028   -3.0832   -9.6841 F   0  0  0  0  0  0  0  0  0  0  0  0
   20.8618   -0.8552  -10.2093 C   0  0  0  0  0  0  0  0  0  0  0  0
   22.1944   -1.2540  -10.7283 C   0  0  2  0  0  0  0  0  0  0  0  0
   23.3295   -0.5601  -10.0533 C   0  0  0  0  0  0  0  0  0  0  0  0
   24.6157   -1.0335  -10.7203 C   0  0  2  0  0  0  0  0  0  0  0  0
   25.8137   -0.4764  -10.0503 C   0  0  0  0  0  0  0  0  0  0  0  0
   26.3553    0.6997  -10.4772 C   0  0  0  0  0  0  0  0  0  0  0  0
   27.4813    1.2397   -9.8568 C   0  0  0  0  0  0  0  0  0  0  0  0
   28.0855    0.6132   -8.7988 C   0  0  0  0  0  0  0  0  0  0  0  0
   27.5477   -0.5777   -8.3569 C   0  0  0  0  0  0  0  0  0  0  0  0
   28.3800   -1.4479   -6.8933 Br  0  0  0  0  0  0  0  0  0  0  0  0
   26.4267   -1.1085   -8.9795 C   0  0  0  0  0  0  0  0  0  0  0  0
   24.5835   -0.7258  -12.1230 N   0  0  0  0  0  0  0  0  0  0  0  0
   23.3851   -0.9503  -12.8609 C   0  0  0  0  0  0  0  0  0  0  0  0
   23.0691   -0.9776  -14.1639 N   0  0  0  0  0  0  0  0  0  0  0  0
   21.7803   -1.2394  -14.2438 N   0  0  0  0  0  0  0  0  0  0  0  0
   21.2695   -1.3790  -13.0339 N   0  0  0  0  0  0  0  0  0  0  0  0
   22.2686   -1.1989  -12.1769 N   0  0  0  0  0  0  0  0  0  0  0  0
   20.4604    0.4701  -10.2111 C   0  0  0  0  0  0  0  0  0  0  0  0
   21.3437    1.3816  -10.7022 F   0  0  0  0  0  0  0  0  0  0  0  0
  1  2  1  0
  2  3  2  0
  3  4  1  0
  4  5  2  0
  5  6  1  0
  5  7  1  0
  8  7  1  1
  9  8  1  6
  9 10  1  0
 10 11  1  1
 11 12  2  0
 12 13  1  0
 13 14  2  0
 14 15  1  0
 15 16  1  0
 15 17  2  0
 10 18  1  0
 18 19  1  0
 19 20  2  0
 20 21  1  0
 21 22  2  0
 22 23  1  0
  7 24  2  0
 24 25  1  0
 24  2  1  0
 23  8  1  0
 17 11  1  0
 23 19  1  0
M  END
$$$$
