_rank14
     RDKit          3D

 25 28  0  0  0  0  0  0  0  0999 V2000
   17.9179   -2.1158  -10.0416 F   0  0  0  0  0  0  0  0  0  0  0  0
   18.9008   -1.1643  -10.1099 C   0  0  0  0  0  0  0  0  0  0  0  0
   18.6066    0.1499   -9.8125 C   0  0  0  0  0  0  0  0  0  0  0  0
   19.6284    1.0711   -9.8940 C   0  0  0  0  0  0  0  0  0  0  0  0
   20.9005    0.6926  -10.2598 C   0  0  0  0  0  0  0  0  0  0  0  0
   21.8989    1.6198  -10.3348 F   0  0  0  0  0  0  0  0  0  0  0  0
   21.2187   -0.6246  -10.5636 C   0  0  0  0  0  0  0  0  0  0  0  0
   22.5845   -1.0562  -10.9542 C   0  0  2  0  0  0  0  0  0  0  0  0
   23.6138   -0.8006   -9.9050 C   0  0  0  0  0  0  0  0  0  0  0  0
   24.9585   -1.2487  -10.4655 C   0  0  2  0  0  0  0  0  0  0  0  0
   26.0361   -1.1300   -9.4561 C   0  0  0  0  0  0  0  0  0  0  0  0
   26.6341   -2.2479   -8.9545 C   0  0  0  0  0  0  0  0  0  0  0  0
   27.6515   -2.1546   -8.0056 C   0  0  0  0  0  0  0  0  0  0  0  0
   28.0887   -0.9421   -7.5413 C   0  0  0  0  0  0  0  0  0  0  0  0
   27.4920    0.1970   -8.0405 C   0  0  0  0  0  0  0  0  0  0  0  0
   28.0939    1.8768   -7.4015 Br  0  0  0  0  0  0  0  0  0  0  0  0
   26.4803    0.0958   -8.9851 C   0  0  0  0  0  0  0  0  0  0  0  0
   25.2560   -0.5217  -11.6681 N   0  0  0  0  0  0  0  0  0  0  0  0
   24.2255   -0.3077  -12.6290 C   0  0  0  0  0  0  0  0  0  0  0  0
   24.1925    0.1211  -13.8992 N   0  0  0  0  0  0  0  0  0  0  0  0
   22.9306    0.1116  -14.2779 N   0  0  0  0  0  0  0  0  0  0  0  0
   22.1630   -0.3093  -13.2890 N   0  0  0  0  0  0  0  0  0  0  0  0
   22.9700   -0.5690  -12.2661 N   0  0  0  0  0  0  0  0  0  0  0  0
   20.1784   -1.5343  -10.4758 C   0  0  0  0  0  0  0  0  0  0  0  0
   20.4668   -2.8315  -10.7696 F   0  0  0  0  0  0  0  0  0  0  0  0
  1  2  1  0
  2  3  2  0
  3  4  1  0
  4  5  2  0
  5  6  1  0
  5  7  1  0
  8  7  1  1
  9  8  1  6
  9 10  1  0
 10 11  1  1
 11 12  2  0
 12 13  1  0
 13 14  2  0
 14 15  1  0
 15 16  1  0
 15 17  2  0
 10 18  1  0
 18 19  1  0
 19 20  2  0
 20 21  1  0
 21 22  2  0
 22 23  1  0
  7 24  2  0
 24 25  1  0
 24  2  1  0
 23  8  1  0
 17 11  1  0
 23 19  1  0
M  END
$$$$
