_rank18
     RDKit          3D

 20 22  0  0  0  0  0  0  0  0999 V2000
   26.6160    1.0758  -12.3599 O   0  0  0  0  0  0  0  0  0  0  0  0
   25.8999    0.1329  -11.9653 N   0  0  0  0  0  4  0  0  0  0  0  0
   25.2606   -0.7000  -12.8526 O   0  0  0  0  0  1  0  0  0  0  0  0
   25.7191   -0.1193  -10.5833 C   0  0  0  0  0  0  0  0  0  0  0  0
   24.5150   -0.6820  -10.1586 C   0  0  0  0  0  0  0  0  0  0  0  0
   23.5389   -0.9828  -11.1326 N   0  0  0  0  0  0  0  0  0  0  0  0
   22.1726   -0.6434  -10.9584 C   0  0  0  0  0  0  0  0  0  0  0  0
   21.8264    0.6318  -10.6037 C   0  0  0  0  0  0  0  0  0  0  0  0
   20.4953    0.9870  -10.4172 C   0  0  0  0  0  0  0  0  0  0  0  0
   19.5106    0.0375  -10.5938 C   0  0  0  0  0  0  0  0  0  0  0  0
   17.8242    0.4260  -10.3822 Cl  0  0  0  0  0  0  0  0  0  0  0  0
   19.8360   -1.2535  -10.9521 C   0  0  0  0  0  0  0  0  0  0  0  0
   21.1832   -1.5772  -11.1312 C   0  0  0  0  0  0  0  0  0  0  0  0
   24.2814   -0.9432   -8.8224 C   0  0  0  0  0  0  0  0  0  0  0  0
   25.2252   -0.6605   -7.8551 C   0  0  0  0  0  0  0  0  0  0  0  0
   26.4133   -0.1055   -8.2782 C   0  0  0  0  0  0  0  0  0  0  0  0
   27.5333    0.2908   -7.6480 N   0  0  0  0  0  0  0  0  0  0  0  0
   28.3762    0.7543   -8.5411 O   0  0  0  0  0  0  0  0  0  0  0  0
   27.8901    0.6945   -9.7340 N   0  0  0  0  0  0  0  0  0  0  0  0
   26.6490    0.1570   -9.6137 C   0  0  0  0  0  0  0  0  0  0  0  0
  1  2  2  0
  2  3  1  0
  2  4  1  0
  4  5  2  0
  5  6  1  0
  6  7  1  0
  7  8  2  0
  8  9  1  0
  9 10  2  0
 10 11  1  0
 10 12  1  0
 12 13  2  0
  5 14  1  0
 14 15  2  0
 15 16  1  0
 16 17  2  0
 17 18  1  0
 18 19  1  0
 19 20  2  0
 20  4  1  0
 13  7  1  0
 20 16  1  0
M  CHG  2   2   1   3  -1
M  END
$$$$
