_rank13
     RDKit          3D

 20 22  0  0  0  0  0  0  0  0999 V2000
   27.3137    0.3399  -12.4859 O   0  0  0  0  0  0  0  0  0  0  0  0
   26.1505    0.1041  -12.0999 N   0  0  0  0  0  4  0  0  0  0  0  0
   25.1168   -0.0466  -12.9935 O   0  0  0  0  0  1  0  0  0  0  0  0
   25.8486   -0.0209  -10.7217 C   0  0  0  0  0  0  0  0  0  0  0  0
   24.5485   -0.3660  -10.3510 C   0  0  0  0  0  0  0  0  0  0  0  0
   23.5993   -0.5848  -11.3723 N   0  0  0  0  0  0  0  0  0  0  0  0
   22.2034   -0.5234  -11.1278 C   0  0  0  0  0  0  0  0  0  0  0  0
   21.4210   -1.6213  -11.3609 C   0  0  0  0  0  0  0  0  0  0  0  0
   20.0491   -1.5835  -11.1386 C   0  0  0  0  0  0  0  0  0  0  0  0
   19.4707   -0.4204  -10.6751 C   0  0  0  0  0  0  0  0  0  0  0  0
   17.7573   -0.3158  -10.3700 Cl  0  0  0  0  0  0  0  0  0  0  0  0
   20.2395    0.6980  -10.4322 C   0  0  0  0  0  0  0  0  0  0  0  0
   21.6149    0.6263  -10.6664 C   0  0  0  0  0  0  0  0  0  0  0  0
   24.1960   -0.4951   -9.0216 C   0  0  0  0  0  0  0  0  0  0  0  0
   25.1109   -0.2898   -8.0082 C   0  0  0  0  0  0  0  0  0  0  0  0
   26.3940    0.0502   -8.3780 C   0  0  0  0  0  0  0  0  0  0  0  0
   27.5209    0.3176   -7.6944 N   0  0  0  0  0  0  0  0  0  0  0  0
   28.4782    0.5862   -8.5513 O   0  0  0  0  0  0  0  0  0  0  0  0
   28.0627    0.5165   -9.7700 N   0  0  0  0  0  0  0  0  0  0  0  0
   26.7487    0.1804   -9.7065 C   0  0  0  0  0  0  0  0  0  0  0  0
  1  2  2  0
  2  3  1  0
  2  4  1  0
  4  5  2  0
  5  6  1  0
  6  7  1  0
  7  8  2  0
  8  9  1  0
  9 10  2  0
 10 11  1  0
 10 12  1  0
 12 13  2  0
  5 14  1  0
 14 15  2  0
 15 16  1  0
 16 17  2  0
 17 18  1  0
 18 19  1  0
 19 20  2  0
 20  4  1  0
 13  7  1  0
 20 16  1  0
M  CHG  2   2   1   3  -1
M  END
$$$$
