_rank6
     RDKit          3D

 20 22  0  0  0  0  0  0  0  0999 V2000
   27.1365    0.0141  -12.6581 O   0  0  0  0  0  0  0  0  0  0  0  0
   25.9885    0.0442  -12.1697 N   0  0  0  0  0  4  0  0  0  0  0  0
   24.8787    0.2234  -12.9608 O   0  0  0  0  0  1  0  0  0  0  0  0
   25.7822   -0.1085  -10.7767 C   0  0  0  0  0  0  0  0  0  0  0  0
   24.5298   -0.5300  -10.3287 C   0  0  0  0  0  0  0  0  0  0  0  0
   23.5315   -0.7947  -11.2907 N   0  0  0  0  0  0  0  0  0  0  0  0
   22.1544   -0.5848  -11.0230 C   0  0  0  0  0  0  0  0  0  0  0  0
   21.7230    0.6376  -10.5855 C   0  0  0  0  0  0  0  0  0  0  0  0
   20.3802    0.8657  -10.3068 C   0  0  0  0  0  0  0  0  0  0  0  0
   19.4710   -0.1575  -10.4756 C   0  0  0  0  0  0  0  0  0  0  0  0
   17.7734    0.0714  -10.1502 Cl  0  0  0  0  0  0  0  0  0  0  0  0
   19.8827   -1.3974  -10.9164 C   0  0  0  0  0  0  0  0  0  0  0  0
   21.2392   -1.5931  -11.1869 C   0  0  0  0  0  0  0  0  0  0  0  0
   24.2703   -0.6893   -8.9813 C   0  0  0  0  0  0  0  0  0  0  0  0
   25.2347   -0.4400   -8.0253 C   0  0  0  0  0  0  0  0  0  0  0  0
   26.4705   -0.0245   -8.4713 C   0  0  0  0  0  0  0  0  0  0  0  0
   27.6217    0.3014   -7.8571 N   0  0  0  0  0  0  0  0  0  0  0  0
   28.5060    0.6308   -8.7695 O   0  0  0  0  0  0  0  0  0  0  0  0
   28.0185    0.5469   -9.9603 N   0  0  0  0  0  0  0  0  0  0  0  0
   26.7322    0.1360   -9.8180 C   0  0  0  0  0  0  0  0  0  0  0  0
  1  2  2  0
  2  3  1  0
  2  4  1  0
  4  5  2  0
  5  6  1  0
  6  7  1  0
  7  8  2  0
  8  9  1  0
  9 10  2  0
 10 11  1  0
 10 12  1  0
 12 13  2  0
  5 14  1  0
 14 15  2  0
 15 16  1  0
 16 17  2  0
 17 18  1  0
 18 19  1  0
 19 20  2  0
 20  4  1  0
 13  7  1  0
 20 16  1  0
M  CHG  2   2   1   3  -1
M  END
$$$$
