_rank9
     RDKit          3D

 20 22  0  0  0  0  0  0  0  0999 V2000
   24.9128    0.1002  -13.1261 O   0  0  0  0  0  0  0  0  0  0  0  0
   25.8935   -0.0636  -12.3718 N   0  0  0  0  0  4  0  0  0  0  0  0
   27.1603   -0.2437  -12.8741 O   0  0  0  0  0  1  0  0  0  0  0  0
   25.7403   -0.0676  -10.9637 C   0  0  0  0  0  0  0  0  0  0  0  0
   24.5271   -0.4969  -10.4246 C   0  0  0  0  0  0  0  0  0  0  0  0
   23.5140   -0.9175  -11.3127 N   0  0  0  0  0  0  0  0  0  0  0  0
   22.1490   -0.5920  -11.1053 C   0  0  0  0  0  0  0  0  0  0  0  0
   21.1720   -1.4650  -11.4994 C   0  0  0  0  0  0  0  0  0  0  0  0
   19.8269   -1.1649  -11.3163 C   0  0  0  0  0  0  0  0  0  0  0  0
   19.4748    0.0315  -10.7275 C   0  0  0  0  0  0  0  0  0  0  0  0
   17.8050    0.4588  -10.4643 Cl  0  0  0  0  0  0  0  0  0  0  0  0
   20.4422    0.9261  -10.3215 C   0  0  0  0  0  0  0  0  0  0  0  0
   21.7845    0.5938  -10.5206 C   0  0  0  0  0  0  0  0  0  0  0  0
   24.3197   -0.5153   -9.0590 C   0  0  0  0  0  0  0  0  0  0  0  0
   25.2996   -0.1123   -8.1738 C   0  0  0  0  0  0  0  0  0  0  0  0
   26.4966    0.3104   -8.7097 C   0  0  0  0  0  0  0  0  0  0  0  0
   27.6479    0.7600   -8.1795 N   0  0  0  0  0  0  0  0  0  0  0  0
   28.4838    1.0271   -9.1556 O   0  0  0  0  0  0  0  0  0  0  0  0
   27.9636    0.7852  -10.3104 N   0  0  0  0  0  0  0  0  0  0  0  0
   26.7062    0.3302  -10.0748 C   0  0  0  0  0  0  0  0  0  0  0  0
  1  2  2  0
  2  3  1  0
  2  4  1  0
  4  5  2  0
  5  6  1  0
  6  7  1  0
  7  8  2  0
  8  9  1  0
  9 10  2  0
 10 11  1  0
 10 12  1  0
 12 13  2  0
  5 14  1  0
 14 15  2  0
 15 16  1  0
 16 17  2  0
 17 18  1  0
 18 19  1  0
 19 20  2  0
 20  4  1  0
 13  7  1  0
 20 16  1  0
M  CHG  2   2   1   3  -1
M  END
$$$$
