_rank16
     RDKit          3D

 20 21  0  0  0  0  0  0  0  0999 V2000
   28.4716   -0.6528  -12.6666 N   0  0  0  0  0  0  0  0  0  0  0  0
   27.6300   -0.6237  -11.8849 C   0  0  0  0  0  0  0  0  0  0  0  0
   26.5680   -0.5619  -10.8937 C   0  0  0  0  0  0  0  0  0  0  0  0
   26.8464   -0.8355   -9.5700 C   0  0  0  0  0  0  0  0  0  0  0  0
   25.8260   -0.7748   -8.6264 C   0  0  0  0  0  0  0  0  0  0  0  0
   26.0998   -1.0425   -7.3331 F   0  0  0  0  0  0  0  0  0  0  0  0
   24.5296   -0.4382   -9.0231 C   0  0  0  0  0  0  0  0  0  0  0  0
   24.2396   -0.1641  -10.3345 C   0  0  0  0  0  0  0  0  0  0  0  0
   22.9740    0.1747  -10.7846 O   0  0  0  0  0  0  0  0  0  0  0  0
   21.9880   -0.8010  -10.7178 C   0  0  0  0  0  0  0  0  0  0  0  0
   22.2550   -2.1402  -10.8819 C   0  0  0  0  0  0  0  0  0  0  0  0
   21.2431   -3.0693  -10.8068 C   0  0  0  0  0  0  0  0  0  0  0  0
   19.9387   -2.6945  -10.5668 C   0  0  0  0  0  0  0  0  0  0  0  0
   18.9058   -3.7539  -10.5002 C   0  0  0  0  0  0  0  0  0  0  0  0
   18.2685   -3.8216   -9.2854 O   0  0  0  0  0  0  0  0  0  0  0  0
   19.6842   -1.3589  -10.4051 C   0  0  0  0  0  0  0  0  0  0  0  0
   20.6898   -0.4068  -10.4771 C   0  0  0  0  0  0  0  0  0  0  0  0
   20.3563    0.9765  -10.2986 C   0  0  0  0  0  0  0  0  0  0  0  0
   20.0816    2.0973  -10.1735 N   0  0  0  0  0  0  0  0  0  0  0  0
   25.2789   -0.2325  -11.2557 C   0  0  0  0  0  0  0  0  0  0  0  0
  1  2  3  0
  2  3  1  0
  3  4  2  0
  4  5  1  0
  5  6  1  0
  5  7  2  0
  7  8  1  0
  8  9  1  0
  9 10  1  0
 10 11  2  0
 11 12  1  0
 12 13  2  0
 13 14  1  0
 14 15  1  6
 13 16  1  0
 16 17  2  0
 17 18  1  0
 18 19  3  0
  8 20  2  0
 20  3  1  0
 17 10  1  0
M  END
$$$$
