_rank14
     RDKit          3D

 20 21  0  0  0  0  0  0  0  0999 V2000
   29.2054   -0.0175  -11.8347 N   0  0  0  0  0  0  0  0  0  0  0  0
   28.1938   -0.1917  -11.3184 C   0  0  0  0  0  0  0  0  0  0  0  0
   26.9157   -0.3895  -10.6540 C   0  0  0  0  0  0  0  0  0  0  0  0
   26.8650   -0.4957   -9.2790 C   0  0  0  0  0  0  0  0  0  0  0  0
   25.6391   -0.6849   -8.6491 C   0  0  0  0  0  0  0  0  0  0  0  0
   25.5913   -0.7885   -7.3051 F   0  0  0  0  0  0  0  0  0  0  0  0
   24.4703   -0.7659   -9.4098 C   0  0  0  0  0  0  0  0  0  0  0  0
   24.5067   -0.6619  -10.7762 C   0  0  0  0  0  0  0  0  0  0  0  0
   23.3811   -0.7347  -11.5803 O   0  0  0  0  0  0  0  0  0  0  0  0
   22.1879   -0.2538  -11.0570 C   0  0  0  0  0  0  0  0  0  0  0  0
   21.9611    1.0837  -10.8307 C   0  0  0  0  0  0  0  0  0  0  0  0
   20.7614    1.5113  -10.3102 C   0  0  0  0  0  0  0  0  0  0  0  0
   19.7543    0.6228  -10.0003 C   0  0  0  0  0  0  0  0  0  0  0  0
   18.4916    1.1609   -9.4436 C   0  0  0  0  0  0  0  0  0  0  0  0
   17.7534    0.2268   -8.7586 O   0  0  0  0  0  0  0  0  0  0  0  0
   19.9908   -0.7061  -10.2296 C   0  0  0  0  0  0  0  0  0  0  0  0
   21.1929   -1.1574  -10.7534 C   0  0  0  0  0  0  0  0  0  0  0  0
   21.3770   -2.5630  -10.9697 C   0  0  0  0  0  0  0  0  0  0  0  0
   21.5215   -3.6981  -11.1641 N   0  0  0  0  0  0  0  0  0  0  0  0
   25.7456   -0.4732  -11.3786 C   0  0  0  0  0  0  0  0  0  0  0  0
  1  2  3  0
  2  3  1  0
  3  4  2  0
  4  5  1  0
  5  6  1  0
  5  7  2  0
  7  8  1  0
  8  9  1  0
  9 10  1  0
 10 11  2  0
 11 12  1  0
 12 13  2  0
 13 14  1  0
 14 15  1  6
 13 16  1  0
 16 17  2  0
 17 18  1  0
 18 19  3  0
  8 20  2  0
 20  3  1  0
 17 10  1  0
M  END
$$$$
