_rank9
     RDKit          3D

 20 21  0  0  0  0  0  0  0  0999 V2000
   18.0417    1.6292   -9.7078 N   0  0  0  0  0  0  0  0  0  0  0  0
   18.9542    0.9693   -9.9364 C   0  0  0  0  0  0  0  0  0  0  0  0
   20.1138    0.1330  -10.2009 C   0  0  0  0  0  0  0  0  0  0  0  0
   19.9756   -1.2394  -10.2462 C   0  0  0  0  0  0  0  0  0  0  0  0
   21.0889   -2.0341  -10.4998 C   0  0  0  0  0  0  0  0  0  0  0  0
   20.9520   -3.3753  -10.5437 F   0  0  0  0  0  0  0  0  0  0  0  0
   22.3363   -1.4403  -10.7064 C   0  0  0  0  0  0  0  0  0  0  0  0
   22.4873   -0.0785  -10.6640 C   0  0  0  0  0  0  0  0  0  0  0  0
   23.6984    0.5645  -10.8611 O   0  0  0  0  0  0  0  0  0  0  0  0
   24.7971    0.0912  -10.1558 C   0  0  0  0  0  0  0  0  0  0  0  0
   24.7677   -0.1373   -8.7999 C   0  0  0  0  0  0  0  0  0  0  0  0
   25.8831   -0.6069   -8.1455 C   0  0  0  0  0  0  0  0  0  0  0  0
   27.0580   -0.8625   -8.8193 C   0  0  0  0  0  0  0  0  0  0  0  0
   28.2152   -1.3666   -8.0443 C   0  0  0  0  0  0  0  0  0  0  0  0
   29.2972   -1.6920   -8.8253 O   0  0  0  0  0  0  0  0  0  0  0  0
   27.0761   -0.6316  -10.1688 C   0  0  0  0  0  0  0  0  0  0  0  0
   25.9628   -0.1585  -10.8468 C   0  0  0  0  0  0  0  0  0  0  0  0
   26.0478    0.0626  -12.2611 C   0  0  0  0  0  0  0  0  0  0  0  0
   26.1016    0.2547  -13.4046 N   0  0  0  0  0  0  0  0  0  0  0  0
   21.3576    0.6909  -10.4087 C   0  0  0  0  0  0  0  0  0  0  0  0
  1  2  3  0
  2  3  1  0
  3  4  2  0
  4  5  1  0
  5  6  1  0
  5  7  2  0
  7  8  1  0
  8  9  1  0
  9 10  1  0
 10 11  2  0
 11 12  1  0
 12 13  2  0
 13 14  1  0
 14 15  1  6
 13 16  1  0
 16 17  2  0
 17 18  1  0
 18 19  3  0
  8 20  2  0
 20  3  1  0
 17 10  1  0
M  END
$$$$
