_rank11
     RDKit          3D

 20 21  0  0  0  0  0  0  0  0999 V2000
   18.7798    2.4577   -9.4158 N   0  0  0  0  0  0  0  0  0  0  0  0
   19.4423    1.5682   -9.7162 C   0  0  0  0  0  0  0  0  0  0  0  0
   20.2982    0.4589  -10.1047 C   0  0  0  0  0  0  0  0  0  0  0  0
   19.7872   -0.5670  -10.8735 C   0  0  0  0  0  0  0  0  0  0  0  0
   20.6110   -1.6256  -11.2420 C   0  0  0  0  0  0  0  0  0  0  0  0
   20.1100   -2.6274  -11.9935 F   0  0  0  0  0  0  0  0  0  0  0  0
   21.9466   -1.6441  -10.8329 C   0  0  0  0  0  0  0  0  0  0  0  0
   22.4666   -0.6315  -10.0691 C   0  0  0  0  0  0  0  0  0  0  0  0
   23.7817   -0.5972   -9.6352 O   0  0  0  0  0  0  0  0  0  0  0  0
   24.7495   -0.2124  -10.5539 C   0  0  0  0  0  0  0  0  0  0  0  0
   24.4399    0.3827  -11.7545 C   0  0  0  0  0  0  0  0  0  0  0  0
   25.4351    0.7462  -12.6321 C   0  0  0  0  0  0  0  0  0  0  0  0
   26.7648    0.5287  -12.3419 C   0  0  0  0  0  0  0  0  0  0  0  0
   27.7774    0.9480  -13.3381 C   0  0  0  0  0  0  0  0  0  0  0  0
   28.9601    0.2561  -13.2412 O   0  0  0  0  0  0  0  0  0  0  0  0
   27.0618   -0.0645  -11.1441 C   0  0  0  0  0  0  0  0  0  0  0  0
   26.0735   -0.4382  -10.2459 C   0  0  0  0  0  0  0  0  0  0  0  0
   26.4517   -1.0553   -9.0080 C   0  0  0  0  0  0  0  0  0  0  0  0
   26.7431   -1.5448   -7.9966 N   0  0  0  0  0  0  0  0  0  0  0  0
   21.6203    0.4136   -9.7157 C   0  0  0  0  0  0  0  0  0  0  0  0
  1  2  3  0
  2  3  1  0
  3  4  2  0
  4  5  1  0
  5  6  1  0
  5  7  2  0
  7  8  1  0
  8  9  1  0
  9 10  1  0
 10 11  2  0
 11 12  1  0
 12 13  2  0
 13 14  1  0
 14 15  1  6
 13 16  1  0
 16 17  2  0
 17 18  1  0
 18 19  3  0
  8 20  2  0
 20  3  1  0
 17 10  1  0
M  END
$$$$
