_rank13
     RDKit          3D

 20 21  0  0  0  0  0  0  0  0999 V2000
   28.6259   -1.3970   -7.8109 N   0  0  0  0  0  0  0  0  0  0  0  0
   27.8172   -1.1342   -8.5837 C   0  0  0  0  0  0  0  0  0  0  0  0
   26.7843   -0.7848   -9.5455 C   0  0  0  0  0  0  0  0  0  0  0  0
   27.0910   -0.7166  -10.8893 C   0  0  0  0  0  0  0  0  0  0  0  0
   26.0983   -0.3818  -11.8046 C   0  0  0  0  0  0  0  0  0  0  0  0
   26.3998   -0.3157  -13.1177 F   0  0  0  0  0  0  0  0  0  0  0  0
   24.8009   -0.1173  -11.3595 C   0  0  0  0  0  0  0  0  0  0  0  0
   24.4830   -0.1814  -10.0276 C   0  0  0  0  0  0  0  0  0  0  0  0
   23.2151    0.0704   -9.5297 O   0  0  0  0  0  0  0  0  0  0  0  0
   22.1770   -0.7316   -9.9856 C   0  0  0  0  0  0  0  0  0  0  0  0
   22.3025   -2.0922  -10.1423 C   0  0  0  0  0  0  0  0  0  0  0  0
   21.2442   -2.8443  -10.5975 C   0  0  0  0  0  0  0  0  0  0  0  0
   20.0325   -2.2663  -10.9095 C   0  0  0  0  0  0  0  0  0  0  0  0
   18.9415   -3.1433  -11.3936 C   0  0  0  0  0  0  0  0  0  0  0  0
   19.2996   -3.9203  -12.4681 O   0  0  0  0  0  0  0  0  0  0  0  0
   19.9185   -0.9113  -10.7498 C   0  0  0  0  0  0  0  0  0  0  0  0
   20.9731   -0.1355  -10.2924 C   0  0  0  0  0  0  0  0  0  0  0  0
   20.7882    1.2791  -10.1472 C   0  0  0  0  0  0  0  0  0  0  0  0
   20.6514    2.4272  -10.0448 N   0  0  0  0  0  0  0  0  0  0  0  0
   25.4949   -0.5185   -9.1356 C   0  0  0  0  0  0  0  0  0  0  0  0
  1  2  3  0
  2  3  1  0
  3  4  2  0
  4  5  1  0
  5  6  1  0
  5  7  2  0
  7  8  1  0
  8  9  1  0
  9 10  1  0
 10 11  2  0
 11 12  1  0
 12 13  2  0
 13 14  1  0
 14 15  1  6
 13 16  1  0
 16 17  2  0
 17 18  1  0
 18 19  3  0
  8 20  2  0
 20  3  1  0
 17 10  1  0
M  END
$$$$
