_rank12
     RDKit          3D

 20 21  0  0  0  0  0  0  0  0999 V2000
   28.2363    1.2678  -13.1607 N   0  0  0  0  0  0  0  0  0  0  0  0
   27.5686    0.8081  -12.3463 C   0  0  0  0  0  0  0  0  0  0  0  0
   26.7185    0.2072  -11.3313 C   0  0  0  0  0  0  0  0  0  0  0  0
   27.1705    0.0998  -10.0318 C   0  0  0  0  0  0  0  0  0  0  0  0
   26.3525   -0.4762   -9.0651 C   0  0  0  0  0  0  0  0  0  0  0  0
   26.7958   -0.5804   -7.7955 F   0  0  0  0  0  0  0  0  0  0  0  0
   25.0823   -0.9409   -9.4143 C   0  0  0  0  0  0  0  0  0  0  0  0
   24.6212   -0.8402  -10.7014 C   0  0  0  0  0  0  0  0  0  0  0  0
   23.3722   -1.2833  -11.1045 O   0  0  0  0  0  0  0  0  0  0  0  0
   22.2710   -0.5271  -10.7249 C   0  0  0  0  0  0  0  0  0  0  0  0
   22.3689    0.7929  -10.3512 C   0  0  0  0  0  0  0  0  0  0  0  0
   21.2478    1.5004   -9.9831 C   0  0  0  0  0  0  0  0  0  0  0  0
   19.9992    0.9170   -9.9758 C   0  0  0  0  0  0  0  0  0  0  0  0
   18.8410    1.7448   -9.5670 C   0  0  0  0  0  0  0  0  0  0  0  0
   17.7413    1.0063   -9.2039 O   0  0  0  0  0  0  0  0  0  0  0  0
   19.9133   -0.3974  -10.3495 C   0  0  0  0  0  0  0  0  0  0  0  0
   21.0309   -1.1279  -10.7239 C   0  0  0  0  0  0  0  0  0  0  0  0
   20.8726   -2.5013  -11.1047 C   0  0  0  0  0  0  0  0  0  0  0  0
   20.7248   -3.6098  -11.4158 N   0  0  0  0  0  0  0  0  0  0  0  0
   25.4602   -0.2603  -11.6465 C   0  0  0  0  0  0  0  0  0  0  0  0
  1  2  3  0
  2  3  1  0
  3  4  2  0
  4  5  1  0
  5  6  1  0
  5  7  2  0
  7  8  1  0
  8  9  1  0
  9 10  1  0
 10 11  2  0
 11 12  1  0
 12 13  2  0
 13 14  1  0
 14 15  1  6
 13 16  1  0
 16 17  2  0
 17 18  1  0
 18 19  3  0
  8 20  2  0
 20  3  1  0
 17 10  1  0
M  END
$$$$
