_rank4
     RDKit          3D

 20 21  0  0  0  0  0  0  0  0999 V2000
   18.4108    2.1391   -9.8717 N   0  0  0  0  0  0  0  0  0  0  0  0
   19.1848    1.3099  -10.0557 C   0  0  0  0  0  0  0  0  0  0  0  0
   20.1700    0.2715  -10.3107 C   0  0  0  0  0  0  0  0  0  0  0  0
   19.8317   -1.0549  -10.1356 C   0  0  0  0  0  0  0  0  0  0  0  0
   20.7788   -2.0439  -10.3811 C   0  0  0  0  0  0  0  0  0  0  0  0
   20.4464   -3.3398  -10.2095 F   0  0  0  0  0  0  0  0  0  0  0  0
   22.0627   -1.6896  -10.8023 C   0  0  0  0  0  0  0  0  0  0  0  0
   22.4117   -0.3760  -10.9801 C   0  0  0  0  0  0  0  0  0  0  0  0
   23.6682    0.0334  -11.3955 O   0  0  0  0  0  0  0  0  0  0  0  0
   24.7257   -0.1506  -10.5142 C   0  0  0  0  0  0  0  0  0  0  0  0
   24.5470   -0.2906   -9.1577 C   0  0  0  0  0  0  0  0  0  0  0  0
   25.6273   -0.4709   -8.3250 C   0  0  0  0  0  0  0  0  0  0  0  0
   26.9142   -0.5171   -8.8162 C   0  0  0  0  0  0  0  0  0  0  0  0
   28.0244   -0.7142   -7.8557 C   0  0  0  0  0  0  0  0  0  0  0  0
   28.4649    0.4530   -7.2811 O   0  0  0  0  0  0  0  0  0  0  0  0
   27.0806   -0.3766  -10.1679 C   0  0  0  0  0  0  0  0  0  0  0  0
   26.0051   -0.1941  -11.0241 C   0  0  0  0  0  0  0  0  0  0  0  0
   26.2476   -0.0535  -12.4304 C   0  0  0  0  0  0  0  0  0  0  0  0
   26.4476    0.0799  -13.5660 N   0  0  0  0  0  0  0  0  0  0  0  0
   21.4451    0.5910  -10.7272 C   0  0  0  0  0  0  0  0  0  0  0  0
  1  2  3  0
  2  3  1  0
  3  4  2  0
  4  5  1  0
  5  6  1  0
  5  7  2  0
  7  8  1  0
  8  9  1  0
  9 10  1  0
 10 11  2  0
 11 12  1  0
 12 13  2  0
 13 14  1  0
 14 15  1  6
 13 16  1  0
 16 17  2  0
 17 18  1  0
 18 19  3  0
  8 20  2  0
 20  3  1  0
 17 10  1  0
M  END
$$$$
