_rank6
     RDKit          3D

 20 21  0  0  0  0  0  0  0  0999 V2000
   19.2337   -3.7845  -10.7128 N   0  0  0  0  0  0  0  0  0  0  0  0
   19.7751   -2.7722  -10.6630 C   0  0  0  0  0  0  0  0  0  0  0  0
   20.4457   -1.4829  -10.6188 C   0  0  0  0  0  0  0  0  0  0  0  0
   19.7794   -0.3779  -10.1292 C   0  0  0  0  0  0  0  0  0  0  0  0
   20.4265    0.8529  -10.0895 C   0  0  0  0  0  0  0  0  0  0  0  0
   19.7737    1.9319   -9.6107 F   0  0  0  0  0  0  0  0  0  0  0  0
   21.7427    0.9629  -10.5440 C   0  0  0  0  0  0  0  0  0  0  0  0
   22.4160   -0.1266  -11.0326 C   0  0  0  0  0  0  0  0  0  0  0  0
   23.7204   -0.0766  -11.4962 O   0  0  0  0  0  0  0  0  0  0  0  0
   24.7383   -0.1704  -10.5560 C   0  0  0  0  0  0  0  0  0  0  0  0
   24.5024   -0.4518   -9.2306 C   0  0  0  0  0  0  0  0  0  0  0  0
   25.5451   -0.5343   -8.3369 C   0  0  0  0  0  0  0  0  0  0  0  0
   26.8503   -0.3397   -8.7345 C   0  0  0  0  0  0  0  0  0  0  0  0
   27.9175   -0.4451   -7.7128 C   0  0  0  0  0  0  0  0  0  0  0  0
   28.6146    0.7237   -7.5267 O   0  0  0  0  0  0  0  0  0  0  0  0
   27.0738   -0.0601  -10.0561 C   0  0  0  0  0  0  0  0  0  0  0  0
   26.0368    0.0273  -10.9726 C   0  0  0  0  0  0  0  0  0  0  0  0
   26.3386    0.3234  -12.3429 C   0  0  0  0  0  0  0  0  0  0  0  0
   26.5874    0.5437  -13.4550 N   0  0  0  0  0  0  0  0  0  0  0  0
   21.7445   -1.3439  -11.0604 C   0  0  0  0  0  0  0  0  0  0  0  0
  1  2  3  0
  2  3  1  0
  3  4  2  0
  4  5  1  0
  5  6  1  0
  5  7  2  0
  7  8  1  0
  8  9  1  0
  9 10  1  0
 10 11  2  0
 11 12  1  0
 12 13  2  0
 13 14  1  0
 14 15  1  6
 13 16  1  0
 16 17  2  0
 17 18  1  0
 18 19  3  0
  8 20  2  0
 20  3  1  0
 17 10  1  0
M  END
$$$$
