_rank10
     RDKit          3D

 24 27  0  0  0  0  0  0  0  0999 V2000
   18.9595   -2.9956   -9.4741 F   0  0  0  0  0  0  0  0  0  0  0  0
   19.5361   -1.8448   -9.9606 C   0  0  0  0  0  0  0  0  0  0  0  0
   18.8225   -0.6793   -9.9909 C   0  0  0  0  0  0  0  0  0  0  0  0
   19.3741    0.4908  -10.4733 C   0  0  0  0  0  0  0  0  0  0  0  0
   18.3714    2.1198  -10.5137 Br  0  0  0  0  0  0  0  0  0  0  0  0
   20.6608    0.4662  -10.9259 C   0  0  0  0  0  0  0  0  0  0  0  0
   21.4190   -0.7119  -10.9084 C   0  0  0  0  0  0  0  0  0  0  0  0
   22.7887   -0.5988  -11.4236 C   0  0  2  0  0  0  0  0  0  0  0  0
   23.7958   -1.0836  -10.4043 C   0  0  0  0  0  0  0  0  0  0  0  0
   25.2009   -0.9932  -10.9124 C   0  0  2  0  0  0  0  0  0  0  0  0
   26.1655   -1.3230   -9.8373 C   0  0  0  0  0  0  0  0  0  0  0  0
   26.2988   -2.5814   -9.2869 C   0  0  0  0  0  0  0  0  0  0  0  0
   27.2141   -2.8359   -8.2874 C   0  0  0  0  0  0  0  0  0  0  0  0
   28.0356   -1.8454   -7.7939 C   0  0  0  0  0  0  0  0  0  0  0  0
   27.9155   -0.5781   -8.3338 C   0  0  0  0  0  0  0  0  0  0  0  0
   29.0357    0.8069   -7.6722 Br  0  0  0  0  0  0  0  0  0  0  0  0
   26.9954   -0.3349   -9.3345 C   0  0  0  0  0  0  0  0  0  0  0  0
   25.5138    0.2702  -11.5327 N   0  0  0  0  0  0  0  0  0  0  0  0
   26.6357    0.8875  -11.8683 N   0  0  0  0  0  0  0  0  0  0  0  0
   26.3790    2.0577  -12.4266 N   0  0  0  0  0  0  0  0  0  0  0  0
   25.0670    2.2062  -12.4556 N   0  0  0  0  0  0  0  0  0  0  0  0
   24.5155    1.0828  -11.8935 C   0  0  0  0  0  0  0  0  0  0  0  0
   23.1427    0.7754  -11.6969 N   0  0  0  0  0  0  0  0  0  0  0  0
   20.8313   -1.8398  -10.4235 C   0  0  0  0  0  0  0  0  0  0  0  0
  1  2  1  0
  2  3  2  0
  3  4  1  0
  4  5  1  0
  4  6  2  0
  6  7  1  0
  8  7  1  1
  9  8  1  1
  9 10  1  0
 10 11  1  1
 11 12  2  0
 12 13  1  0
 13 14  2  0
 14 15  1  0
 15 16  1  0
 15 17  2  0
 10 18  1  0
 18 19  1  0
 19 20  2  0
 20 21  1  0
 21 22  2  0
 22 23  1  0
  7 24  2  0
 24  2  1  0
 23  8  1  0
 17 11  1  0
 22 18  1  0
M  END
$$$$
