_rank12
     RDKit          3D

 24 27  0  0  0  0  0  0  0  0999 V2000
   19.3453    0.9948   -8.1659 F   0  0  0  0  0  0  0  0  0  0  0  0
   19.6803    0.4826   -9.3984 C   0  0  0  0  0  0  0  0  0  0  0  0
   18.7246    0.3396  -10.3652 C   0  0  0  0  0  0  0  0  0  0  0  0
   19.0307   -0.1712  -11.6108 C   0  0  0  0  0  0  0  0  0  0  0  0
   17.6895   -0.3695  -12.9608 Br  0  0  0  0  0  0  0  0  0  0  0  0
   20.3200   -0.5364  -11.8662 C   0  0  0  0  0  0  0  0  0  0  0  0
   21.3228   -0.4026  -10.8970 C   0  0  0  0  0  0  0  0  0  0  0  0
   22.6663   -0.8326  -11.3028 C   0  0  2  0  0  0  0  0  0  0  0  0
   23.6514   -0.6891  -10.1639 C   0  0  0  0  0  0  0  0  0  0  0  0
   25.0271   -1.1367  -10.5482 C   0  0  2  0  0  0  0  0  0  0  0  0
   25.9939   -0.8343   -9.4671 C   0  0  0  0  0  0  0  0  0  0  0  0
   26.2481   -1.6810   -8.4074 C   0  0  0  0  0  0  0  0  0  0  0  0
   27.1597   -1.3518   -7.4265 C   0  0  0  0  0  0  0  0  0  0  0  0
   27.8568   -0.1633   -7.4608 C   0  0  0  0  0  0  0  0  0  0  0  0
   27.6146    0.6973   -8.5155 C   0  0  0  0  0  0  0  0  0  0  0  0
   28.5618    2.3430   -8.5880 Br  0  0  0  0  0  0  0  0  0  0  0  0
   26.6995    0.3571   -9.4922 C   0  0  0  0  0  0  0  0  0  0  0  0
   25.4739   -0.6161  -11.8164 N   0  0  0  0  0  0  0  0  0  0  0  0
   26.6493   -0.5152  -12.4168 N   0  0  0  0  0  0  0  0  0  0  0  0
   26.5232    0.0522  -13.6039 N   0  0  0  0  0  0  0  0  0  0  0  0
   25.2434    0.3262  -13.7807 N   0  0  0  0  0  0  0  0  0  0  0  0
   24.5763   -0.0926  -12.6574 C   0  0  0  0  0  0  0  0  0  0  0  0
   23.1869   -0.0126  -12.3729 N   0  0  0  0  0  0  0  0  0  0  0  0
   20.9720    0.1060   -9.6842 C   0  0  0  0  0  0  0  0  0  0  0  0
  1  2  1  0
  2  3  2  0
  3  4  1  0
  4  5  1  0
  4  6  2  0
  6  7  1  0
  8  7  1  1
  9  8  1  1
  9 10  1  0
 10 11  1  1
 11 12  2  0
 12 13  1  0
 13 14  2  0
 14 15  1  0
 15 16  1  0
 15 17  2  0
 10 18  1  0
 18 19  1  0
 19 20  2  0
 20 21  1  0
 21 22  2  0
 22 23  1  0
  7 24  2  0
 24  2  1  0
 23  8  1  0
 17 11  1  0
 22 18  1  0
M  END
$$$$
