_rank14
     RDKit          3D

 24 27  0  0  0  0  0  0  0  0999 V2000
   28.8722    0.3632  -11.8354 F   0  0  0  0  0  0  0  0  0  0  0  0
   27.8507   -0.1411  -11.0635 C   0  0  0  0  0  0  0  0  0  0  0  0
   28.0593   -0.4106   -9.7396 C   0  0  0  0  0  0  0  0  0  0  0  0
   27.0539   -0.9169   -8.9404 C   0  0  0  0  0  0  0  0  0  0  0  0
   27.3506   -1.2924   -7.0879 Br  0  0  0  0  0  0  0  0  0  0  0  0
   25.8312   -1.1478   -9.4996 C   0  0  0  0  0  0  0  0  0  0  0  0
   25.5850   -0.8823  -10.8531 C   0  0  0  0  0  0  0  0  0  0  0  0
   24.2267   -1.1756  -11.3258 C   0  0  2  0  0  0  0  0  0  0  0  0
   23.2326   -0.1735  -10.7820 C   0  0  0  0  0  0  0  0  0  0  0  0
   21.8406   -0.4419  -11.2629 C   0  0  2  0  0  0  0  0  0  0  0  0
   20.8745    0.4558  -10.5878 C   0  0  0  0  0  0  0  0  0  0  0  0
   21.1765    1.7393  -10.1806 C   0  0  0  0  0  0  0  0  0  0  0  0
   20.2391    2.5350   -9.5562 C   0  0  0  0  0  0  0  0  0  0  0  0
   18.9600    2.0840   -9.3113 C   0  0  0  0  0  0  0  0  0  0  0  0
   18.6398    0.8001   -9.7127 C   0  0  0  0  0  0  0  0  0  0  0  0
   16.8833    0.1524   -9.3876 Br  0  0  0  0  0  0  0  0  0  0  0  0
   19.5868    0.0123  -10.3371 C   0  0  0  0  0  0  0  0  0  0  0  0
   21.4441   -1.8235  -11.1511 N   0  0  0  0  0  0  0  0  0  0  0  0
   20.2860   -2.4635  -11.1905 N   0  0  0  0  0  0  0  0  0  0  0  0
   20.4626   -3.7642  -11.0356 N   0  0  0  0  0  0  0  0  0  0  0  0
   21.7583   -3.9762  -10.8927 N   0  0  0  0  0  0  0  0  0  0  0  0
   22.3829   -2.7568  -10.9644 C   0  0  0  0  0  0  0  0  0  0  0  0
   23.7697   -2.4665  -10.8639 N   0  0  0  0  0  0  0  0  0  0  0  0
   26.6078   -0.3838  -11.6001 C   0  0  0  0  0  0  0  0  0  0  0  0
  1  2  1  0
  2  3  2  0
  3  4  1  0
  4  5  1  0
  4  6  2  0
  6  7  1  0
  8  7  1  1
  9  8  1  1
  9 10  1  0
 10 11  1  1
 11 12  2  0
 12 13  1  0
 13 14  2  0
 14 15  1  0
 15 16  1  0
 15 17  2  0
 10 18  1  0
 18 19  1  0
 19 20  2  0
 20 21  1  0
 21 22  2  0
 22 23  1  0
  7 24  2  0
 24  2  1  0
 23  8  1  0
 17 11  1  0
 22 18  1  0
M  END
$$$$
