_rank9
     RDKit          3D

 24 27  0  0  0  0  0  0  0  0999 V2000
   18.2041   -2.6996  -11.3704 F   0  0  0  0  0  0  0  0  0  0  0  0
   19.1932   -1.8062  -11.0281 C   0  0  0  0  0  0  0  0  0  0  0  0
   18.9149   -0.7608  -10.1925 C   0  0  0  0  0  0  0  0  0  0  0  0
   19.8864    0.1512   -9.8314 C   0  0  0  0  0  0  0  0  0  0  0  0
   19.4919    1.6128   -8.6615 Br  0  0  0  0  0  0  0  0  0  0  0  0
   21.1468   -0.0087  -10.3283 C   0  0  0  0  0  0  0  0  0  0  0  0
   21.4645   -1.0693  -11.1868 C   0  0  0  0  0  0  0  0  0  0  0  0
   22.8570   -1.1242  -11.6476 C   0  0  2  0  0  0  0  0  0  0  0  0
   23.8088   -1.3002  -10.4851 C   0  0  0  0  0  0  0  0  0  0  0  0
   25.2359   -1.3750  -10.9308 C   0  0  2  0  0  0  0  0  0  0  0  0
   26.1464   -1.3861   -9.7621 C   0  0  0  0  0  0  0  0  0  0  0  0
   26.2854   -2.4620   -8.9092 C   0  0  0  0  0  0  0  0  0  0  0  0
   27.1487   -2.4211   -7.8347 C   0  0  0  0  0  0  0  0  0  0  0  0
   27.9105   -1.3047   -7.5650 C   0  0  0  0  0  0  0  0  0  0  0  0
   27.7839   -0.2170   -8.4094 C   0  0  0  0  0  0  0  0  0  0  0  0
   28.8222    1.3358   -8.0612 Br  0  0  0  0  0  0  0  0  0  0  0  0
   26.9161   -0.2694   -9.4824 C   0  0  0  0  0  0  0  0  0  0  0  0
   25.6033   -0.3502  -11.8761 N   0  0  0  0  0  0  0  0  0  0  0  0
   26.7521    0.1320  -12.3235 N   0  0  0  0  0  0  0  0  0  0  0  0
   26.5459    1.0910  -13.2093 N   0  0  0  0  0  0  0  0  0  0  0  0
   25.2400    1.2369  -13.3419 N   0  0  0  0  0  0  0  0  0  0  0  0
   24.6398    0.3313  -12.5041 C   0  0  0  0  0  0  0  0  0  0  0  0
   23.2534    0.1074  -12.2916 N   0  0  0  0  0  0  0  0  0  0  0  0
   20.4729   -1.9424  -11.5137 C   0  0  0  0  0  0  0  0  0  0  0  0
  1  2  1  0
  2  3  2  0
  3  4  1  0
  4  5  1  0
  4  6  2  0
  6  7  1  0
  8  7  1  1
  9  8  1  1
  9 10  1  0
 10 11  1  1
 11 12  2  0
 12 13  1  0
 13 14  2  0
 14 15  1  0
 15 16  1  0
 15 17  2  0
 10 18  1  0
 18 19  1  0
 19 20  2  0
 20 21  1  0
 21 22  2  0
 22 23  1  0
  7 24  2  0
 24  2  1  0
 23  8  1  0
 17 11  1  0
 22 18  1  0
M  END
$$$$
