_rank13
     RDKit          3D

 24 27  0  0  0  0  0  0  0  0999 V2000
   18.2440   -1.9730   -8.2672 F   0  0  0  0  0  0  0  0  0  0  0  0
   18.8345   -2.2011   -9.4891 C   0  0  0  0  0  0  0  0  0  0  0  0
   18.2995   -3.1188  -10.3495 C   0  0  0  0  0  0  0  0  0  0  0  0
   18.8697   -3.3689  -11.5817 C   0  0  0  0  0  0  0  0  0  0  0  0
   18.1172   -4.6544  -12.7826 Br  0  0  0  0  0  0  0  0  0  0  0  0
   19.9914   -2.6765  -11.9331 C   0  0  0  0  0  0  0  0  0  0  0  0
   20.5643   -1.7295  -11.0742 C   0  0  0  0  0  0  0  0  0  0  0  0
   21.7684   -1.0566  -11.5759 C   0  0  2  0  0  0  0  0  0  0  0  0
   23.0133   -1.5993  -10.9095 C   0  0  0  0  0  0  0  0  0  0  0  0
   24.2577   -0.9395  -11.4161 C   0  0  2  0  0  0  0  0  0  0  0  0
   25.4358   -1.3786  -10.6325 C   0  0  0  0  0  0  0  0  0  0  0  0
   26.2969   -2.3778  -11.0381 C   0  0  0  0  0  0  0  0  0  0  0  0
   27.3809   -2.7485  -10.2705 C   0  0  0  0  0  0  0  0  0  0  0  0
   27.6522   -2.1380   -9.0650 C   0  0  0  0  0  0  0  0  0  0  0  0
   26.7996   -1.1347   -8.6428 C   0  0  0  0  0  0  0  0  0  0  0  0
   27.1497   -0.2758   -6.9844 Br  0  0  0  0  0  0  0  0  0  0  0  0
   25.7171   -0.7718   -9.4199 C   0  0  0  0  0  0  0  0  0  0  0  0
   24.1696    0.4984  -11.4753 N   0  0  0  0  0  0  0  0  0  0  0  0
   25.0513    1.4790  -11.5906 N   0  0  0  0  0  0  0  0  0  0  0  0
   24.4477    2.6549  -11.5986 N   0  0  0  0  0  0  0  0  0  0  0  0
   23.1498    2.4374  -11.4865 N   0  0  0  0  0  0  0  0  0  0  0  0
   22.9677    1.0798  -11.4083 C   0  0  0  0  0  0  0  0  0  0  0  0
   21.7520    0.3571  -11.2764 N   0  0  0  0  0  0  0  0  0  0  0  0
   19.9658   -1.5179   -9.8702 C   0  0  0  0  0  0  0  0  0  0  0  0
  1  2  1  0
  2  3  2  0
  3  4  1  0
  4  5  1  0
  4  6  2  0
  6  7  1  0
  8  7  1  1
  9  8  1  1
  9 10  1  0
 10 11  1  1
 11 12  2  0
 12 13  1  0
 13 14  2  0
 14 15  1  0
 15 16  1  0
 15 17  2  0
 10 18  1  0
 18 19  1  0
 19 20  2  0
 20 21  1  0
 21 22  2  0
 22 23  1  0
  7 24  2  0
 24  2  1  0
 23  8  1  0
 17 11  1  0
 22 18  1  0
M  END
$$$$
