_rank16
     RDKit          3D

 24 27  0  0  0  0  0  0  0  0999 V2000
   28.5367    1.2842  -11.1902 F   0  0  0  0  0  0  0  0  0  0  0  0
   27.6165    0.4321  -10.6238 C   0  0  0  0  0  0  0  0  0  0  0  0
   27.9259   -0.2509   -9.4809 C   0  0  0  0  0  0  0  0  0  0  0  0
   27.0234   -1.1124   -8.8898 C   0  0  0  0  0  0  0  0  0  0  0  0
   27.4610   -2.0663   -7.2900 Br  0  0  0  0  0  0  0  0  0  0  0  0
   25.8003   -1.2743   -9.4719 C   0  0  0  0  0  0  0  0  0  0  0  0
   25.4523   -0.5891  -10.6434 C   0  0  0  0  0  0  0  0  0  0  0  0
   24.1057   -0.8544  -11.1636 C   0  0  2  0  0  0  0  0  0  0  0  0
   23.0775    0.0253  -10.4874 C   0  0  0  0  0  0  0  0  0  0  0  0
   21.6964   -0.2153  -11.0124 C   0  0  2  0  0  0  0  0  0  0  0  0
   20.6993    0.5429  -10.2213 C   0  0  0  0  0  0  0  0  0  0  0  0
   19.4819    0.9596  -10.7199 C   0  0  0  0  0  0  0  0  0  0  0  0
   18.5881    1.6629   -9.9402 C   0  0  0  0  0  0  0  0  0  0  0  0
   18.8708    1.9808   -8.6292 C   0  0  0  0  0  0  0  0  0  0  0  0
   20.0863    1.5711   -8.1129 C   0  0  0  0  0  0  0  0  0  0  0  0
   20.5024    1.9957   -6.3081 Br  0  0  0  0  0  0  0  0  0  0  0  0
   20.9736    0.8673   -8.9032 C   0  0  0  0  0  0  0  0  0  0  0  0
   21.3456   -1.6107  -11.1053 N   0  0  0  0  0  0  0  0  0  0  0  0
   20.2094   -2.2754  -11.2458 N   0  0  0  0  0  0  0  0  0  0  0  0
   20.4286   -3.5783  -11.2801 N   0  0  0  0  0  0  0  0  0  0  0  0
   21.7303   -3.7667  -11.1600 N   0  0  0  0  0  0  0  0  0  0  0  0
   22.3143   -2.5302  -11.0493 C   0  0  0  0  0  0  0  0  0  0  0  0
   23.6904   -2.2128  -10.8975 N   0  0  0  0  0  0  0  0  0  0  0  0
   26.3757    0.2491  -11.1885 C   0  0  0  0  0  0  0  0  0  0  0  0
  1  2  1  0
  2  3  2  0
  3  4  1  0
  4  5  1  0
  4  6  2  0
  6  7  1  0
  8  7  1  1
  9  8  1  1
  9 10  1  0
 10 11  1  1
 11 12  2  0
 12 13  1  0
 13 14  2  0
 14 15  1  0
 15 16  1  0
 15 17  2  0
 10 18  1  0
 18 19  1  0
 19 20  2  0
 20 21  1  0
 21 22  2  0
 22 23  1  0
  7 24  2  0
 24  2  1  0
 23  8  1  0
 17 11  1  0
 22 18  1  0
M  END
$$$$
