_rank18
     RDKit          3D

 24 27  0  0  0  0  0  0  0  0999 V2000
   28.6045   -2.9388   -9.1634 F   0  0  0  0  0  0  0  0  0  0  0  0
   27.8868   -1.7649   -9.1802 C   0  0  0  0  0  0  0  0  0  0  0  0
   28.1909   -0.7617   -8.3029 C   0  0  0  0  0  0  0  0  0  0  0  0
   27.4887    0.4269   -8.2961 C   0  0  0  0  0  0  0  0  0  0  0  0
   27.9180    1.8281   -7.0661 Br  0  0  0  0  0  0  0  0  0  0  0  0
   26.4718    0.5878   -9.1912 C   0  0  0  0  0  0  0  0  0  0  0  0
   26.1352   -0.4208  -10.1035 C   0  0  0  0  0  0  0  0  0  0  0  0
   25.0218   -0.1174  -11.0105 C   0  0  2  0  0  0  0  0  0  0  0  0
   23.6929   -0.4651  -10.3770 C   0  0  0  0  0  0  0  0  0  0  0  0
   22.5391   -0.1498  -11.2771 C   0  0  2  0  0  0  0  0  0  0  0  0
   21.2720   -0.6480  -10.6931 C   0  0  0  0  0  0  0  0  0  0  0  0
   20.6585   -1.8215  -11.0814 C   0  0  0  0  0  0  0  0  0  0  0  0
   19.4784   -2.2412  -10.5044 C   0  0  0  0  0  0  0  0  0  0  0  0
   18.8596   -1.5076   -9.5152 C   0  0  0  0  0  0  0  0  0  0  0  0
   19.4604   -0.3287   -9.1137 C   0  0  0  0  0  0  0  0  0  0  0  0
   18.6291    0.7028   -7.7515 Br  0  0  0  0  0  0  0  0  0  0  0  0
   20.6423    0.0815   -9.6986 C   0  0  0  0  0  0  0  0  0  0  0  0
   22.7149   -0.6144  -12.6306 N   0  0  0  0  0  0  0  0  0  0  0  0
   21.9051   -0.8015  -13.6609 N   0  0  0  0  0  0  0  0  0  0  0  0
   22.5736   -1.2529  -14.7079 N   0  0  0  0  0  0  0  0  0  0  0  0
   23.8414   -1.3622  -14.3544 N   0  0  0  0  0  0  0  0  0  0  0  0
   23.9374   -0.9612  -13.0458 C   0  0  0  0  0  0  0  0  0  0  0  0
   25.0926   -0.9030  -12.2214 N   0  0  0  0  0  0  0  0  0  0  0  0
   26.8565   -1.5746  -10.0714 C   0  0  0  0  0  0  0  0  0  0  0  0
  1  2  1  0
  2  3  2  0
  3  4  1  0
  4  5  1  0
  4  6  2  0
  6  7  1  0
  8  7  1  1
  9  8  1  1
  9 10  1  0
 10 11  1  1
 11 12  2  0
 12 13  1  0
 13 14  2  0
 14 15  1  0
 15 16  1  0
 15 17  2  0
 10 18  1  0
 18 19  1  0
 19 20  2  0
 20 21  1  0
 21 22  2  0
 22 23  1  0
  7 24  2  0
 24  2  1  0
 23  8  1  0
 17 11  1  0
 22 18  1  0
M  END
$$$$
