_rank8
     RDKit          3D

 24 27  0  0  0  0  0  0  0  0999 V2000
   18.2783   -3.0867  -11.1786 F   0  0  0  0  0  0  0  0  0  0  0  0
   19.1837   -2.0752  -10.9535 C   0  0  0  0  0  0  0  0  0  0  0  0
   18.7688   -0.8901  -10.4132 C   0  0  0  0  0  0  0  0  0  0  0  0
   19.6538    0.1426  -10.1760 C   0  0  0  0  0  0  0  0  0  0  0  0
   19.0683    1.7996   -9.4195 Br  0  0  0  0  0  0  0  0  0  0  0  0
   20.9680   -0.0399  -10.4935 C   0  0  0  0  0  0  0  0  0  0  0  0
   21.4252   -1.2424  -11.0484 C   0  0  0  0  0  0  0  0  0  0  0  0
   22.8620   -1.3059  -11.3419 C   0  0  2  0  0  0  0  0  0  0  0  0
   23.6837   -1.0669  -10.0946 C   0  0  0  0  0  0  0  0  0  0  0  0
   25.1541   -1.1423  -10.3647 C   0  0  2  0  0  0  0  0  0  0  0  0
   25.9251   -0.7474   -9.1628 C   0  0  0  0  0  0  0  0  0  0  0  0
   25.4855    0.1808   -8.2411 C   0  0  0  0  0  0  0  0  0  0  0  0
   26.2426    0.5126   -7.1374 C   0  0  0  0  0  0  0  0  0  0  0  0
   27.4712   -0.0676   -6.9059 C   0  0  0  0  0  0  0  0  0  0  0  0
   27.9275   -0.9999   -7.8194 C   0  0  0  0  0  0  0  0  0  0  0  0
   29.6183   -1.8157   -7.5252 Br  0  0  0  0  0  0  0  0  0  0  0  0
   27.1607   -1.3243   -8.9211 C   0  0  0  0  0  0  0  0  0  0  0  0
   25.5699   -0.3969  -11.5267 N   0  0  0  0  0  0  0  0  0  0  0  0
   26.7340    0.0361  -11.9849 N   0  0  0  0  0  0  0  0  0  0  0  0
   26.5775    0.6867  -13.1248 N   0  0  0  0  0  0  0  0  0  0  0  0
   25.2891    0.6779  -13.4150 N   0  0  0  0  0  0  0  0  0  0  0  0
   24.6482   -0.0036  -12.4115 C   0  0  0  0  0  0  0  0  0  0  0  0
   23.2609   -0.2757  -12.2737 N   0  0  0  0  0  0  0  0  0  0  0  0
   20.5147   -2.2309  -11.2636 C   0  0  0  0  0  0  0  0  0  0  0  0
  1  2  1  0
  2  3  2  0
  3  4  1  0
  4  5  1  0
  4  6  2  0
  6  7  1  0
  8  7  1  1
  9  8  1  1
  9 10  1  0
 10 11  1  1
 11 12  2  0
 12 13  1  0
 13 14  2  0
 14 15  1  0
 15 16  1  0
 15 17  2  0
 10 18  1  0
 18 19  1  0
 19 20  2  0
 20 21  1  0
 21 22  2  0
 22 23  1  0
  7 24  2  0
 24  2  1  0
 23  8  1  0
 17 11  1  0
 22 18  1  0
M  END
$$$$
