_rank19
     RDKit          3D

 24 27  0  0  0  0  0  0  0  0999 V2000
   27.5475    1.2423   -6.8747 F   0  0  0  0  0  0  0  0  0  0  0  0
   27.3470    0.4986   -8.0150 C   0  0  0  0  0  0  0  0  0  0  0  0
   28.2649   -0.4418   -8.3916 C   0  0  0  0  0  0  0  0  0  0  0  0
   28.0909   -1.2028   -9.5302 C   0  0  0  0  0  0  0  0  0  0  0  0
   29.3784   -2.5179  -10.0532 Br  0  0  0  0  0  0  0  0  0  0  0  0
   26.9729   -0.9995  -10.2851 C   0  0  0  0  0  0  0  0  0  0  0  0
   26.0133   -0.0436   -9.9266 C   0  0  0  0  0  0  0  0  0  0  0  0
   24.8591    0.0725  -10.8259 C   0  0  2  0  0  0  0  0  0  0  0  0
   23.5618   -0.1393  -10.0773 C   0  0  0  0  0  0  0  0  0  0  0  0
   22.3675   -0.0102  -10.9704 C   0  0  2  0  0  0  0  0  0  0  0  0
   21.1310   -0.3796  -10.2427 C   0  0  0  0  0  0  0  0  0  0  0  0
   20.8344   -1.6655   -9.8392 C   0  0  0  0  0  0  0  0  0  0  0  0
   19.6682   -1.9561   -9.1631 C   0  0  0  0  0  0  0  0  0  0  0  0
   18.7477   -0.9760   -8.8606 C   0  0  0  0  0  0  0  0  0  0  0  0
   19.0286    0.3185   -9.2575 C   0  0  0  0  0  0  0  0  0  0  0  0
   17.7769    1.6899   -8.8536 Br  0  0  0  0  0  0  0  0  0  0  0  0
   20.1996    0.5978   -9.9340 C   0  0  0  0  0  0  0  0  0  0  0  0
   22.4878   -0.7374  -12.2095 N   0  0  0  0  0  0  0  0  0  0  0  0
   21.6353   -1.1270  -13.1443 N   0  0  0  0  0  0  0  0  0  0  0  0
   22.2611   -1.7802  -14.1079 N   0  0  0  0  0  0  0  0  0  0  0  0
   23.5439   -1.8175  -13.7961 N   0  0  0  0  0  0  0  0  0  0  0  0
   23.6937   -1.1619  -12.6003 C   0  0  0  0  0  0  0  0  0  0  0  0
   24.8832   -0.9405  -11.8564 N   0  0  0  0  0  0  0  0  0  0  0  0
   26.2294    0.6819   -8.7955 C   0  0  0  0  0  0  0  0  0  0  0  0
  1  2  1  0
  2  3  2  0
  3  4  1  0
  4  5  1  0
  4  6  2  0
  6  7  1  0
  8  7  1  1
  9  8  1  1
  9 10  1  0
 10 11  1  1
 11 12  2  0
 12 13  1  0
 13 14  2  0
 14 15  1  0
 15 16  1  0
 15 17  2  0
 10 18  1  0
 18 19  1  0
 19 20  2  0
 20 21  1  0
 21 22  2  0
 22 23  1  0
  7 24  2  0
 24  2  1  0
 23  8  1  0
 17 11  1  0
 22 18  1  0
M  END
$$$$
