_rank12
     RDKit          3D

 19 20  0  0  0  0  0  0  0  0999 V2000
   18.6097   -3.4626  -10.6491 N   0  0  0  0  0  0  0  0  0  0  0  0
   19.3805   -2.6230  -10.5453 C   0  0  0  0  0  0  0  0  0  0  0  0
   20.3940   -1.5394  -10.4293 C   0  0  0  0  0  0  0  0  0  0  0  0
   20.0293   -0.2800   -9.9534 C   0  0  0  0  0  0  0  0  0  0  0  0
   21.0158    0.7088   -9.9342 C   0  0  0  0  0  0  0  0  0  0  0  0
   20.7476    1.9349   -9.4944 F   0  0  0  0  0  0  0  0  0  0  0  0
   22.3174    0.4075  -10.3863 C   0  0  0  0  0  0  0  0  0  0  0  0
   22.6831   -0.8424  -10.8565 C   0  0  0  0  0  0  0  0  0  0  0  0
   23.9346   -1.1022  -11.2908 O   0  0  0  0  0  0  0  0  0  0  0  0
   25.0518   -0.7953  -10.4139 C   0  0  0  0  0  0  0  0  0  0  0  0
   24.8805   -1.3075   -9.1555 C   0  0  0  0  0  0  0  0  0  0  0  0
   25.9701   -0.9923   -8.2804 C   0  0  0  0  0  0  0  0  0  0  0  0
   27.0248   -0.2587   -8.7566 C   0  0  0  0  0  0  0  0  0  0  0  0
   28.1266    0.1114   -7.7997 C   0  0  0  0  0  0  0  0  0  0  0  0
   28.5349    1.4109   -8.0120 O   0  0  0  0  0  0  0  0  0  0  0  0
   27.1293    0.2169  -10.0321 C   0  0  0  0  0  0  0  0  0  0  0  0
   26.0509   -0.0876  -10.9127 C   0  0  0  0  0  0  0  0  0  0  0  0
   26.1978    0.5596  -12.6919 Br  0  0  0  0  0  0  0  0  0  0  0  0
   21.6313   -1.7828  -10.8384 C   0  0  0  0  0  0  0  0  0  0  0  0
  1  2  3  0
  2  3  1  0
  3  4  2  0
  4  5  1  0
  5  6  1  0
  5  7  2  0
  7  8  1  0
  8  9  1  0
  9 10  1  0
 10 11  2  0
 11 12  1  0
 12 13  2  0
 13 14  1  0
 14 15  1  6
 13 16  1  0
 16 17  2  0
 17 18  1  0
  8 19  2  0
 19  3  1  0
 17 10  1  0
M  END
$$$$
