_rank7
     RDKit          3D

 19 20  0  0  0  0  0  0  0  0999 V2000
   18.0810    1.6171  -10.9230 N   0  0  0  0  0  0  0  0  0  0  0  0
   18.9780    0.9109  -10.8421 C   0  0  0  0  0  0  0  0  0  0  0  0
   20.1311   -0.0225  -10.7244 C   0  0  0  0  0  0  0  0  0  0  0  0
   19.9714   -1.2685  -10.1180 C   0  0  0  0  0  0  0  0  0  0  0  0
   21.1102   -2.0658   -9.9812 C   0  0  0  0  0  0  0  0  0  0  0  0
   21.0408   -3.2669   -9.4144 F   0  0  0  0  0  0  0  0  0  0  0  0
   22.3544   -1.5952  -10.4500 C   0  0  0  0  0  0  0  0  0  0  0  0
   22.5154   -0.3602  -11.0550 C   0  0  0  0  0  0  0  0  0  0  0  0
   23.7196    0.0696  -11.4880 O   0  0  0  0  0  0  0  0  0  0  0  0
   24.8557   -0.0245  -10.5870 C   0  0  0  0  0  0  0  0  0  0  0  0
   24.4735   -0.2375   -9.2894 C   0  0  0  0  0  0  0  0  0  0  0  0
   25.5885   -0.3125   -8.3929 C   0  0  0  0  0  0  0  0  0  0  0  0
   26.8595   -0.1809   -8.8876 C   0  0  0  0  0  0  0  0  0  0  0  0
   28.0093   -0.2013   -7.9159 C   0  0  0  0  0  0  0  0  0  0  0  0
   28.0671   -1.4131   -7.2610 O   0  0  0  0  0  0  0  0  0  0  0  0
   27.1656    0.0263  -10.2019 C   0  0  0  0  0  0  0  0  0  0  0  0
   26.0655    0.1052  -11.1044 C   0  0  0  0  0  0  0  0  0  0  0  0
   26.4863    0.3792  -12.9357 Br  0  0  0  0  0  0  0  0  0  0  0  0
   21.3179    0.3789  -11.1578 C   0  0  0  0  0  0  0  0  0  0  0  0
  1  2  3  0
  2  3  1  0
  3  4  2  0
  4  5  1  0
  5  6  1  0
  5  7  2  0
  7  8  1  0
  8  9  1  0
  9 10  1  0
 10 11  2  0
 11 12  1  0
 12 13  2  0
 13 14  1  0
 14 15  1  6
 13 16  1  0
 16 17  2  0
 17 18  1  0
  8 19  2  0
 19  3  1  0
 17 10  1  0
M  END
$$$$
