_rank4
     RDKit          3D

 19 20  0  0  0  0  0  0  0  0999 V2000
   18.5010    1.8984   -8.9986 N   0  0  0  0  0  0  0  0  0  0  0  0
   19.2087    1.1654   -9.5199 C   0  0  0  0  0  0  0  0  0  0  0  0
   20.1406    0.2306  -10.2072 C   0  0  0  0  0  0  0  0  0  0  0  0
   19.7695   -1.0944  -10.4362 C   0  0  0  0  0  0  0  0  0  0  0  0
   20.7182   -1.9335  -11.0254 C   0  0  0  0  0  0  0  0  0  0  0  0
   20.4412   -3.2097  -11.2768 F   0  0  0  0  0  0  0  0  0  0  0  0
   21.9900   -1.4246  -11.3613 C   0  0  0  0  0  0  0  0  0  0  0  0
   22.3602   -0.1092  -11.1379 C   0  0  0  0  0  0  0  0  0  0  0  0
   23.5874    0.3505  -11.4618 O   0  0  0  0  0  0  0  0  0  0  0  0
   24.6996    0.0433  -10.5787 C   0  0  0  0  0  0  0  0  0  0  0  0
   24.3355    0.0619   -9.2588 C   0  0  0  0  0  0  0  0  0  0  0  0
   25.4321   -0.2217   -8.3817 C   0  0  0  0  0  0  0  0  0  0  0  0
   26.6689   -0.4790   -8.9124 C   0  0  0  0  0  0  0  0  0  0  0  0
   27.8169   -0.7125   -7.9668 C   0  0  0  0  0  0  0  0  0  0  0  0
   28.3571    0.4878   -7.5567 O   0  0  0  0  0  0  0  0  0  0  0  0
   26.9574   -0.4848  -10.2468 C   0  0  0  0  0  0  0  0  0  0  0  0
   25.8758   -0.2018  -11.1307 C   0  0  0  0  0  0  0  0  0  0  0  0
   26.2685   -0.2222  -12.9884 Br  0  0  0  0  0  0  0  0  0  0  0  0
   21.3447    0.6705  -10.5448 C   0  0  0  0  0  0  0  0  0  0  0  0
  1  2  3  0
  2  3  1  0
  3  4  2  0
  4  5  1  0
  5  6  1  0
  5  7  2  0
  7  8  1  0
  8  9  1  0
  9 10  1  0
 10 11  2  0
 11 12  1  0
 12 13  2  0
 13 14  1  0
 14 15  1  6
 13 16  1  0
 16 17  2  0
 17 18  1  0
  8 19  2  0
 19  3  1  0
 17 10  1  0
M  END
$$$$
