_rank2
     RDKit          3D

 19 20  0  0  0  0  0  0  0  0999 V2000
   18.6397    1.9540   -8.8206 N   0  0  0  0  0  0  0  0  0  0  0  0
   19.2616    1.1502   -9.3469 C   0  0  0  0  0  0  0  0  0  0  0  0
   20.0557    0.0884  -10.0228 C   0  0  0  0  0  0  0  0  0  0  0  0
   19.5498   -1.2065  -10.1368 C   0  0  0  0  0  0  0  0  0  0  0  0
   20.3760   -2.1685  -10.7227 C   0  0  0  0  0  0  0  0  0  0  0  0
   19.9666   -3.4254  -10.8681 F   0  0  0  0  0  0  0  0  0  0  0  0
   21.6641   -1.8066  -11.1689 C   0  0  0  0  0  0  0  0  0  0  0  0
   22.1678   -0.5215  -11.0596 C   0  0  0  0  0  0  0  0  0  0  0  0
   23.4079   -0.2034  -11.4879 O   0  0  0  0  0  0  0  0  0  0  0  0
   24.5133   -0.3027  -10.5501 C   0  0  0  0  0  0  0  0  0  0  0  0
   24.0903   -0.5640   -9.2742 C   0  0  0  0  0  0  0  0  0  0  0  0
   25.1744   -0.6444   -8.3410 C   0  0  0  0  0  0  0  0  0  0  0  0
   26.4589   -0.4716   -8.7856 C   0  0  0  0  0  0  0  0  0  0  0  0
   27.5739   -0.4993   -7.7744 C   0  0  0  0  0  0  0  0  0  0  0  0
   28.4241    0.5696   -7.9630 O   0  0  0  0  0  0  0  0  0  0  0  0
   26.8066   -0.2173  -10.0811 C   0  0  0  0  0  0  0  0  0  0  0  0
   25.7375   -0.1324  -11.0197 C   0  0  0  0  0  0  0  0  0  0  0  0
   26.2166    0.2075  -12.8254 Br  0  0  0  0  0  0  0  0  0  0  0  0
   21.2701    0.3883  -10.4619 C   0  0  0  0  0  0  0  0  0  0  0  0
  1  2  3  0
  2  3  1  0
  3  4  2  0
  4  5  1  0
  5  6  1  0
  5  7  2  0
  7  8  1  0
  8  9  1  0
  9 10  1  0
 10 11  2  0
 11 12  1  0
 12 13  2  0
 13 14  1  0
 14 15  1  6
 13 16  1  0
 16 17  2  0
 17 18  1  0
  8 19  2  0
 19  3  1  0
 17 10  1  0
M  END
$$$$
