_rank5
     RDKit          3D

 19 20  0  0  0  0  0  0  0  0999 V2000
   19.5031    2.4394   -9.0956 N   0  0  0  0  0  0  0  0  0  0  0  0
   19.8958    1.4963   -9.6114 C   0  0  0  0  0  0  0  0  0  0  0  0
   20.4016    0.2575  -10.2628 C   0  0  0  0  0  0  0  0  0  0  0  0
   19.6131   -0.8925  -10.3002 C   0  0  0  0  0  0  0  0  0  0  0  0
   20.1764   -2.0382  -10.8673 C   0  0  0  0  0  0  0  0  0  0  0  0
   19.4890   -3.1743  -10.9409 F   0  0  0  0  0  0  0  0  0  0  0  0
   21.4929   -1.9946  -11.3713 C   0  0  0  0  0  0  0  0  0  0  0  0
   22.2769   -0.8538  -11.3381 C   0  0  0  0  0  0  0  0  0  0  0  0
   23.5376   -0.8414  -11.8207 O   0  0  0  0  0  0  0  0  0  0  0  0
   24.6348   -0.6311  -10.8916 C   0  0  0  0  0  0  0  0  0  0  0  0
   24.5915   -1.4973   -9.8318 C   0  0  0  0  0  0  0  0  0  0  0  0
   25.6602   -1.2827   -8.9021 C   0  0  0  0  0  0  0  0  0  0  0  0
   26.5779   -0.2954   -9.1482 C   0  0  0  0  0  0  0  0  0  0  0  0
   27.6542   -0.0501   -8.1245 C   0  0  0  0  0  0  0  0  0  0  0  0
   27.1397    0.6157   -7.0323 O   0  0  0  0  0  0  0  0  0  0  0  0
   26.5597    0.5309  -10.2348 C   0  0  0  0  0  0  0  0  0  0  0  0
   25.5003    0.3298  -11.1668 C   0  0  0  0  0  0  0  0  0  0  0  0
   25.4782    1.4673  -12.6871 Br  0  0  0  0  0  0  0  0  0  0  0  0
   21.6328    0.2576  -10.7544 C   0  0  0  0  0  0  0  0  0  0  0  0
  1  2  3  0
  2  3  1  0
  3  4  2  0
  4  5  1  0
  5  6  1  0
  5  7  2  0
  7  8  1  0
  8  9  1  0
  9 10  1  0
 10 11  2  0
 11 12  1  0
 12 13  2  0
 13 14  1  0
 14 15  1  6
 13 16  1  0
 16 17  2  0
 17 18  1  0
  8 19  2  0
 19  3  1  0
 17 10  1  0
M  END
$$$$
