_rank1
     RDKit          3D

 19 20  0  0  0  0  0  0  0  0999 V2000
   18.9218    2.2140   -9.0940 N   0  0  0  0  0  0  0  0  0  0  0  0
   19.4776    1.3352   -9.5721 C   0  0  0  0  0  0  0  0  0  0  0  0
   20.2077    0.2068  -10.2112 C   0  0  0  0  0  0  0  0  0  0  0  0
   19.6506   -1.0718  -10.2333 C   0  0  0  0  0  0  0  0  0  0  0  0
   20.4196   -2.0969  -10.7893 C   0  0  0  0  0  0  0  0  0  0  0  0
   19.9592   -3.3432  -10.8481 F   0  0  0  0  0  0  0  0  0  0  0  0
   21.7037   -1.8113  -11.2978 C   0  0  0  0  0  0  0  0  0  0  0  0
   22.2581   -0.5427  -11.2799 C   0  0  0  0  0  0  0  0  0  0  0  0
   23.4933   -0.2979  -11.7664 O   0  0  0  0  0  0  0  0  0  0  0  0
   24.6074   -0.2385  -10.8354 C   0  0  0  0  0  0  0  0  0  0  0  0
   24.2243   -0.5092   -9.5489 C   0  0  0  0  0  0  0  0  0  0  0  0
   25.3149   -0.4338   -8.6229 C   0  0  0  0  0  0  0  0  0  0  0  0
   26.5680   -0.1248   -9.0831 C   0  0  0  0  0  0  0  0  0  0  0  0
   27.6834    0.0091   -8.0809 C   0  0  0  0  0  0  0  0  0  0  0  0
   27.5138   -0.8864   -7.0465 O   0  0  0  0  0  0  0  0  0  0  0  0
   26.8770    0.1296  -10.3884 C   0  0  0  0  0  0  0  0  0  0  0  0
   25.8007    0.0602  -11.3200 C   0  0  0  0  0  0  0  0  0  0  0  0
   26.2277    0.3995  -13.1389 Br  0  0  0  0  0  0  0  0  0  0  0  0
   21.4162    0.4337  -10.7066 C   0  0  0  0  0  0  0  0  0  0  0  0
  1  2  3  0
  2  3  1  0
  3  4  2  0
  4  5  1  0
  5  6  1  0
  5  7  2  0
  7  8  1  0
  8  9  1  0
  9 10  1  0
 10 11  2  0
 11 12  1  0
 12 13  2  0
 13 14  1  0
 14 15  1  6
 13 16  1  0
 16 17  2  0
 17 18  1  0
  8 19  2  0
 19  3  1  0
 17 10  1  0
M  END
$$$$
