_rank14
     RDKit          3D

 19 20  0  0  0  0  0  0  0  0999 V2000
   18.4033    0.4291   -8.6061 N   0  0  0  0  0  0  0  0  0  0  0  0
   19.2189   -0.0271   -9.2668 C   0  0  0  0  0  0  0  0  0  0  0  0
   20.2824   -0.6376  -10.1100 C   0  0  0  0  0  0  0  0  0  0  0  0
   20.1177   -1.9192  -10.6353 C   0  0  0  0  0  0  0  0  0  0  0  0
   21.1833   -2.4565  -11.3614 C   0  0  0  0  0  0  0  0  0  0  0  0
   21.1041   -3.6722  -11.8948 F   0  0  0  0  0  0  0  0  0  0  0  0
   22.3625   -1.7026  -11.5350 C   0  0  0  0  0  0  0  0  0  0  0  0
   22.5278   -0.4291  -11.0172 C   0  0  0  0  0  0  0  0  0  0  0  0
   23.6705    0.2682  -11.1915 O   0  0  0  0  0  0  0  0  0  0  0  0
   24.8597   -0.1563  -10.4725 C   0  0  0  0  0  0  0  0  0  0  0  0
   24.6123   -1.2130   -9.6373 C   0  0  0  0  0  0  0  0  0  0  0  0
   25.7768   -1.6244   -8.9112 C   0  0  0  0  0  0  0  0  0  0  0  0
   26.9624   -0.9679   -9.1133 C   0  0  0  0  0  0  0  0  0  0  0  0
   28.1552   -1.3796   -8.2921 C   0  0  0  0  0  0  0  0  0  0  0  0
   29.0019   -0.3088   -8.0991 O   0  0  0  0  0  0  0  0  0  0  0  0
   27.1354    0.0803   -9.9708 C   0  0  0  0  0  0  0  0  0  0  0  0
   25.9842    0.5014  -10.6979 C   0  0  0  0  0  0  0  0  0  0  0  0
   26.2225    1.9500  -11.9023 Br  0  0  0  0  0  0  0  0  0  0  0  0
   21.4053    0.0403  -10.3026 C   0  0  0  0  0  0  0  0  0  0  0  0
  1  2  3  0
  2  3  1  0
  3  4  2  0
  4  5  1  0
  5  6  1  0
  5  7  2  0
  7  8  1  0
  8  9  1  0
  9 10  1  0
 10 11  2  0
 11 12  1  0
 12 13  2  0
 13 14  1  0
 14 15  1  6
 13 16  1  0
 16 17  2  0
 17 18  1  0
  8 19  2  0
 19  3  1  0
 17 10  1  0
M  END
$$$$
