_rank12
     RDKit          3D

 25 28  0  0  0  0  0  0  0  0999 V2000
   25.0083   -1.0443   -8.4045 F   0  0  0  0  0  0  0  0  0  0  0  0
   25.8770   -0.6248   -9.3307 C   0  0  0  0  0  0  0  0  0  0  0  0
   27.2048   -0.4431   -8.9383 C   0  0  0  0  0  0  0  0  0  0  0  0
   27.6954   -0.7994   -7.1200 Br  0  0  0  0  0  0  0  0  0  0  0  0
   28.1514   -0.0134   -9.8451 C   0  0  0  0  0  0  0  0  0  0  0  0
   27.7541    0.2298  -11.1384 C   0  0  0  0  0  0  0  0  0  0  0  0
   26.4434    0.0480  -11.5163 C   0  0  0  0  0  0  0  0  0  0  0  0
   25.9248    0.3932  -13.3162 Br  0  0  0  0  0  0  0  0  0  0  0  0
   25.4672   -0.3845  -10.6229 C   0  0  0  0  0  0  0  0  0  0  0  0
   24.0797   -0.5618  -11.0778 C   0  0  2  0  0  0  0  0  0  0  0  0
   23.0694    0.1841  -10.2037 C   0  0  0  0  0  0  0  0  0  0  0  0
   21.7343    0.0609  -10.8923 C   0  0  2  0  0  0  0  0  0  0  0  0
   20.6473    0.8086  -10.2319 C   0  0  0  0  0  0  0  0  0  0  0  0
   20.6839    2.1834  -10.3176 C   0  0  0  0  0  0  0  0  0  0  0  0
   19.6953    2.9242   -9.7217 C   0  0  0  0  0  0  0  0  0  0  0  0
   18.6802    2.2943   -9.0466 C   0  0  0  0  0  0  0  0  0  0  0  0
   18.6467    0.9276   -8.9631 C   0  0  0  0  0  0  0  0  0  0  0  0
   17.2227    0.0816   -8.0177 Br  0  0  0  0  0  0  0  0  0  0  0  0
   19.6381    0.1714   -9.5601 C   0  0  0  0  0  0  0  0  0  0  0  0
   21.3704   -1.3420  -10.9166 N   0  0  0  0  0  0  0  0  0  0  0  0
   22.4160   -2.3106  -11.0829 C   0  0  0  0  0  0  0  0  0  0  0  0
   22.4047   -3.6443  -11.1913 N   0  0  0  0  0  0  0  0  0  0  0  0
   23.6409   -4.0871  -11.3301 N   0  0  0  0  0  0  0  0  0  0  0  0
   24.4343   -3.0338  -11.3095 N   0  0  0  0  0  0  0  0  0  0  0  0
   23.6992   -1.9499  -11.1598 N   0  0  0  0  0  0  0  0  0  0  0  0
  1  2  1  0
  2  3  2  0
  3  4  1  0
  3  5  1  0
  5  6  2  0
  6  7  1  0
  7  8  1  0
  7  9  2  0
 10  9  1  1
 11 10  1  6
 11 12  1  0
 12 13  1  1
 13 14  2  0
 14 15  1  0
 15 16  2  0
 16 17  1  0
 17 18  1  0
 17 19  2  0
 12 20  1  0
 20 21  1  0
 21 22  2  0
 22 23  1  0
 23 24  2  0
 24 25  1  0
  9  2  1  0
 25 10  1  0
 19 13  1  0
 25 21  1  0
M  END
$$$$
