_rank3
     RDKit          3D

 25 28  0  0  0  0  0  0  0  0999 V2000
   27.3112    1.4865  -10.6495 F   0  0  0  0  0  0  0  0  0  0  0  0
   26.9079    0.7512   -9.6078 C   0  0  0  0  0  0  0  0  0  0  0  0
   27.8326    0.5079   -8.5900 C   0  0  0  0  0  0  0  0  0  0  0  0
   29.6007    1.2314   -8.7459 Br  0  0  0  0  0  0  0  0  0  0  0  0
   27.4802   -0.2421   -7.4871 C   0  0  0  0  0  0  0  0  0  0  0  0
   26.2012   -0.7408   -7.4178 C   0  0  0  0  0  0  0  0  0  0  0  0
   25.2965   -0.4961   -8.4255 C   0  0  0  0  0  0  0  0  0  0  0  0
   23.5314   -1.2009   -8.2994 Br  0  0  0  0  0  0  0  0  0  0  0  0
   25.6242    0.2571   -9.5496 C   0  0  0  0  0  0  0  0  0  0  0  0
   24.6199    0.4882  -10.5992 C   0  0  2  0  0  0  0  0  0  0  0  0
   23.2196    0.0251  -10.1920 C   0  0  0  0  0  0  0  0  0  0  0  0
   22.2826    0.4895  -11.2774 C   0  0  2  0  0  0  0  0  0  0  0  0
   20.8604    0.2097  -11.0025 C   0  0  0  0  0  0  0  0  0  0  0  0
   20.1430    1.1800  -10.3374 C   0  0  0  0  0  0  0  0  0  0  0  0
   18.8166    0.9686  -10.0595 C   0  0  0  0  0  0  0  0  0  0  0  0
   18.2148   -0.2031  -10.4439 C   0  0  0  0  0  0  0  0  0  0  0  0
   18.9306   -1.1658  -11.1049 C   0  0  0  0  0  0  0  0  0  0  0  0
   18.0657   -2.7837  -11.6260 Br  0  0  0  0  0  0  0  0  0  0  0  0
   20.2680   -0.9629  -11.3900 C   0  0  0  0  0  0  0  0  0  0  0  0
   22.6492   -0.1874  -12.5056 N   0  0  0  0  0  0  0  0  0  0  0  0
   24.0395   -0.4483  -12.7468 C   0  0  0  0  0  0  0  0  0  0  0  0
   24.6911   -0.9978  -13.7784 N   0  0  0  0  0  0  0  0  0  0  0  0
   25.9864   -1.0180  -13.5230 N   0  0  0  0  0  0  0  0  0  0  0  0
   26.1544   -0.4814  -12.3300 N   0  0  0  0  0  0  0  0  0  0  0  0
   24.9772   -0.1322  -11.8505 N   0  0  0  0  0  0  0  0  0  0  0  0
  1  2  1  0
  2  3  2  0
  3  4  1  0
  3  5  1  0
  5  6  2  0
  6  7  1  0
  7  8  1  0
  7  9  2  0
 10  9  1  1
 11 10  1  6
 11 12  1  0
 12 13  1  1
 13 14  2  0
 14 15  1  0
 15 16  2  0
 16 17  1  0
 17 18  1  0
 17 19  2  0
 12 20  1  0
 20 21  1  0
 21 22  2  0
 22 23  1  0
 23 24  2  0
 24 25  1  0
  9  2  1  0
 25 10  1  0
 19 13  1  0
 25 21  1  0
M  END
$$$$
