_rank18
     RDKit          3D

 25 28  0  0  0  0  0  0  0  0999 V2000
   21.4505   -3.5296   -9.9447 F   0  0  0  0  0  0  0  0  0  0  0  0
   20.3036   -3.1488  -10.5176 C   0  0  0  0  0  0  0  0  0  0  0  0
   19.2337   -4.0457  -10.4840 C   0  0  0  0  0  0  0  0  0  0  0  0
   19.4707   -5.7462   -9.6320 Br  0  0  0  0  0  0  0  0  0  0  0  0
   18.0227   -3.7141  -11.0554 C   0  0  0  0  0  0  0  0  0  0  0  0
   17.8985   -2.4837  -11.6554 C   0  0  0  0  0  0  0  0  0  0  0  0
   18.9581   -1.6061  -11.6838 C   0  0  0  0  0  0  0  0  0  0  0  0
   18.7539    0.0917  -12.5226 Br  0  0  0  0  0  0  0  0  0  0  0  0
   20.1913   -1.9138  -11.1155 C   0  0  0  0  0  0  0  0  0  0  0  0
   21.2924   -0.9402  -11.1743 C   0  0  2  0  0  0  0  0  0  0  0  0
   22.6342   -1.5362  -10.7439 C   0  0  0  0  0  0  0  0  0  0  0  0
   23.6794   -0.4886  -11.0300 C   0  0  2  0  0  0  0  0  0  0  0  0
   25.0612   -0.9307  -10.7617 C   0  0  0  0  0  0  0  0  0  0  0  0
   25.7134   -1.6097  -11.7677 C   0  0  0  0  0  0  0  0  0  0  0  0
   27.0003   -2.0404  -11.5682 C   0  0  0  0  0  0  0  0  0  0  0  0
   27.6275   -1.7936  -10.3730 C   0  0  0  0  0  0  0  0  0  0  0  0
   26.9765   -1.1184   -9.3749 C   0  0  0  0  0  0  0  0  0  0  0  0
   27.8752   -0.7907   -7.7250 Br  0  0  0  0  0  0  0  0  0  0  0  0
   25.6794   -0.6798   -9.5655 C   0  0  0  0  0  0  0  0  0  0  0  0
   23.4008    0.6623  -10.1940 N   0  0  0  0  0  0  0  0  0  0  0  0
   22.0294    0.9930   -9.9312 C   0  0  0  0  0  0  0  0  0  0  0  0
   21.4539    1.9943   -9.2552 N   0  0  0  0  0  0  0  0  0  0  0  0
   20.1410    1.8600   -9.2989 N   0  0  0  0  0  0  0  0  0  0  0  0
   19.8859    0.7741  -10.0024 N   0  0  0  0  0  0  0  0  0  0  0  0
   21.0269    0.2405  -10.3908 N   0  0  0  0  0  0  0  0  0  0  0  0
  1  2  1  0
  2  3  2  0
  3  4  1  0
  3  5  1  0
  5  6  2  0
  6  7  1  0
  7  8  1  0
  7  9  2  0
 10  9  1  1
 11 10  1  6
 11 12  1  0
 12 13  1  1
 13 14  2  0
 14 15  1  0
 15 16  2  0
 16 17  1  0
 17 18  1  0
 17 19  2  0
 12 20  1  0
 20 21  1  0
 21 22  2  0
 22 23  1  0
 23 24  2  0
 24 25  1  0
  9  2  1  0
 25 10  1  0
 19 13  1  0
 25 21  1  0
M  END
$$$$
