_rank19
     RDKit          3D

 25 28  0  0  0  0  0  0  0  0999 V2000
   19.5117   -3.1634   -9.8193 F   0  0  0  0  0  0  0  0  0  0  0  0
   19.3647   -1.8422   -9.6738 C   0  0  0  0  0  0  0  0  0  0  0  0
   18.1675   -1.3804   -9.1228 C   0  0  0  0  0  0  0  0  0  0  0  0
   16.8245   -2.6507   -8.6168 Br  0  0  0  0  0  0  0  0  0  0  0  0
   17.9528   -0.0294   -8.9445 C   0  0  0  0  0  0  0  0  0  0  0  0
   18.9440    0.8450   -9.3218 C   0  0  0  0  0  0  0  0  0  0  0  0
   20.1207    0.3811   -9.8640 C   0  0  0  0  0  0  0  0  0  0  0  0
   21.4750    1.6185  -10.3765 Br  0  0  0  0  0  0  0  0  0  0  0  0
   20.3646   -0.9762  -10.0555 C   0  0  0  0  0  0  0  0  0  0  0  0
   21.6393   -1.4195  -10.6405 C   0  0  2  0  0  0  0  0  0  0  0  0
   22.8238   -0.5540  -10.2058 C   0  0  0  0  0  0  0  0  0  0  0  0
   24.0642   -1.2323  -10.7284 C   0  0  2  0  0  0  0  0  0  0  0  0
   25.3226   -0.5801  -10.3187 C   0  0  0  0  0  0  0  0  0  0  0  0
   25.9102    0.2807  -11.2200 C   0  0  0  0  0  0  0  0  0  0  0  0
   27.0805    0.9133  -10.8860 C   0  0  0  0  0  0  0  0  0  0  0  0
   27.6564    0.6860   -9.6615 C   0  0  0  0  0  0  0  0  0  0  0  0
   27.0699   -0.1703   -8.7677 C   0  0  0  0  0  0  0  0  0  0  0  0
   27.8947   -0.4654   -7.0737 Br  0  0  0  0  0  0  0  0  0  0  0  0
   25.8903   -0.8131   -9.0942 C   0  0  0  0  0  0  0  0  0  0  0  0
   24.0012   -1.2275  -12.1766 N   0  0  0  0  0  0  0  0  0  0  0  0
   22.7177   -1.3813  -12.7996 C   0  0  0  0  0  0  0  0  0  0  0  0
   22.3378   -1.4639  -14.0801 N   0  0  0  0  0  0  0  0  0  0  0  0
   21.0261   -1.6013  -14.1441 N   0  0  0  0  0  0  0  0  0  0  0  0
   20.5761   -1.6057  -12.9044 N   0  0  0  0  0  0  0  0  0  0  0  0
   21.5965   -1.4725  -12.0805 N   0  0  0  0  0  0  0  0  0  0  0  0
  1  2  1  0
  2  3  2  0
  3  4  1  0
  3  5  1  0
  5  6  2  0
  6  7  1  0
  7  8  1  0
  7  9  2  0
 10  9  1  6
 11 10  1  6
 11 12  1  0
 12 13  1  6
 13 14  2  0
 14 15  1  0
 15 16  2  0
 16 17  1  0
 17 18  1  0
 17 19  2  0
 12 20  1  0
 20 21  1  0
 21 22  2  0
 22 23  1  0
 23 24  2  0
 24 25  1  0
  9  2  1  0
 25 10  1  0
 19 13  1  0
 25 21  1  0
M  END
$$$$
