_rank20
     RDKit          3D

 25 28  0  0  0  0  0  0  0  0999 V2000
   26.3034   -0.2289  -12.4031 F   0  0  0  0  0  0  0  0  0  0  0  0
   26.4140   -0.4370  -11.0867 C   0  0  0  0  0  0  0  0  0  0  0  0
   27.6796   -0.2984  -10.5130 C   0  0  0  0  0  0  0  0  0  0  0  0
   29.1624    0.1738  -11.6320 Br  0  0  0  0  0  0  0  0  0  0  0  0
   27.8619   -0.4979   -9.1602 C   0  0  0  0  0  0  0  0  0  0  0  0
   26.7698   -0.8351   -8.3966 C   0  0  0  0  0  0  0  0  0  0  0  0
   25.5262   -0.9696   -8.9704 C   0  0  0  0  0  0  0  0  0  0  0  0
   24.0327   -1.4375   -7.8848 Br  0  0  0  0  0  0  0  0  0  0  0  0
   25.3129   -0.7744  -10.3323 C   0  0  0  0  0  0  0  0  0  0  0  0
   23.9633   -0.9318  -10.8958 C   0  0  2  0  0  0  0  0  0  0  0  0
   22.9334   -0.0147  -10.2330 C   0  0  0  0  0  0  0  0  0  0  0  0
   21.6611   -0.1541  -11.0289 C   0  0  2  0  0  0  0  0  0  0  0  0
   20.5746    0.7398  -10.5847 C   0  0  0  0  0  0  0  0  0  0  0  0
   19.3416    0.1691  -10.3552 C   0  0  0  0  0  0  0  0  0  0  0  0
   18.2990    0.9575   -9.9393 C   0  0  0  0  0  0  0  0  0  0  0  0
   18.4896    2.3038   -9.7553 C   0  0  0  0  0  0  0  0  0  0  0  0
   19.7164    2.8681   -9.9844 C   0  0  0  0  0  0  0  0  0  0  0  0
   19.9496    4.7423   -9.7197 Br  0  0  0  0  0  0  0  0  0  0  0  0
   20.7740    2.0827  -10.4037 C   0  0  0  0  0  0  0  0  0  0  0  0
   21.2020   -1.5233  -10.9037 N   0  0  0  0  0  0  0  0  0  0  0  0
   22.1868   -2.5648  -10.8356 C   0  0  0  0  0  0  0  0  0  0  0  0
   22.0905   -3.8977  -10.7673 N   0  0  0  0  0  0  0  0  0  0  0  0
   23.2995   -4.4266  -10.7224 N   0  0  0  0  0  0  0  0  0  0  0  0
   24.1607   -3.4286  -10.7623 N   0  0  0  0  0  0  0  0  0  0  0  0
   23.4941   -2.2934  -10.8311 N   0  0  0  0  0  0  0  0  0  0  0  0
  1  2  1  0
  2  3  2  0
  3  4  1  0
  3  5  1  0
  5  6  2  0
  6  7  1  0
  7  8  1  0
  7  9  2  0
 10  9  1  1
 11 10  1  6
 11 12  1  0
 12 13  1  1
 13 14  2  0
 14 15  1  0
 15 16  2  0
 16 17  1  0
 17 18  1  0
 17 19  2  0
 12 20  1  0
 20 21  1  0
 21 22  2  0
 22 23  1  0
 23 24  2  0
 24 25  1  0
  9  2  1  0
 25 10  1  0
 19 13  1  0
 25 21  1  0
M  END
$$$$
