_rank14
     RDKit          3D

 25 28  0  0  0  0  0  0  0  0999 V2000
   25.5133   -0.7201   -7.8219 F   0  0  0  0  0  0  0  0  0  0  0  0
   25.9537   -0.6661   -9.0835 C   0  0  0  0  0  0  0  0  0  0  0  0
   27.3160   -0.8804   -9.3038 C   0  0  0  0  0  0  0  0  0  0  0  0
   28.4573   -1.2327   -7.8048 Br  0  0  0  0  0  0  0  0  0  0  0  0
   27.8345   -0.8397  -10.5814 C   0  0  0  0  0  0  0  0  0  0  0  0
   26.9786   -0.5838  -11.6260 C   0  0  0  0  0  0  0  0  0  0  0  0
   25.6375   -0.3737  -11.3998 C   0  0  0  0  0  0  0  0  0  0  0  0
   24.4774   -0.0218  -12.8688 Br  0  0  0  0  0  0  0  0  0  0  0  0
   25.0867   -0.4088  -10.1216 C   0  0  0  0  0  0  0  0  0  0  0  0
   23.6464   -0.1763   -9.9341 C   0  0  2  0  0  0  0  0  0  0  0  0
   22.7830   -1.2812  -10.5463 C   0  0  0  0  0  0  0  0  0  0  0  0
   21.3647   -1.0026  -10.1188 C   0  0  2  0  0  0  0  0  0  0  0  0
   20.3967   -2.0314  -10.5443 C   0  0  0  0  0  0  0  0  0  0  0  0
   20.7113   -3.3451  -10.2726 C   0  0  0  0  0  0  0  0  0  0  0  0
   19.8432   -4.3391  -10.6466 C   0  0  0  0  0  0  0  0  0  0  0  0
   18.6718   -4.0203  -11.2862 C   0  0  0  0  0  0  0  0  0  0  0  0
   18.3620   -2.7135  -11.5549 C   0  0  0  0  0  0  0  0  0  0  0  0
   16.7264   -2.3026  -12.4454 Br  0  0  0  0  0  0  0  0  0  0  0  0
   19.2299   -1.7040  -11.1824 C   0  0  0  0  0  0  0  0  0  0  0  0
   20.9633    0.2648  -10.6965 N   0  0  0  0  0  0  0  0  0  0  0  0
   21.9508    1.2994  -10.8133 C   0  0  0  0  0  0  0  0  0  0  0  0
   21.8892    2.5638  -11.2473 N   0  0  0  0  0  0  0  0  0  0  0  0
   23.0832    3.1204  -11.1584 N   0  0  0  0  0  0  0  0  0  0  0  0
   23.9002    2.2085  -10.6682 N   0  0  0  0  0  0  0  0  0  0  0  0
   23.2213    1.0988  -10.4554 N   0  0  0  0  0  0  0  0  0  0  0  0
  1  2  1  0
  2  3  2  0
  3  4  1  0
  3  5  1  0
  5  6  2  0
  6  7  1  0
  7  8  1  0
  7  9  2  0
 10  9  1  6
 11 10  1  6
 11 12  1  0
 12 13  1  6
 13 14  2  0
 14 15  1  0
 15 16  2  0
 16 17  1  0
 17 18  1  0
 17 19  2  0
 12 20  1  0
 20 21  1  0
 21 22  2  0
 22 23  1  0
 23 24  2  0
 24 25  1  0
  9  2  1  0
 25 10  1  0
 19 13  1  0
 25 21  1  0
M  END
$$$$
