_rank17
     RDKit          3D

 25 28  0  0  0  0  0  0  0  0999 V2000
   19.6027   -2.4586   -9.8347 F   0  0  0  0  0  0  0  0  0  0  0  0
   19.7489   -1.1293   -9.8389 C   0  0  0  0  0  0  0  0  0  0  0  0
   18.6507   -0.3556   -9.4573 C   0  0  0  0  0  0  0  0  0  0  0  0
   17.0215   -1.2335   -8.9589 Br  0  0  0  0  0  0  0  0  0  0  0  0
   18.7356    1.0212   -9.4388 C   0  0  0  0  0  0  0  0  0  0  0  0
   19.9240    1.6074   -9.8041 C   0  0  0  0  0  0  0  0  0  0  0  0
   21.0011    0.8372  -10.1787 C   0  0  0  0  0  0  0  0  0  0  0  0
   22.6342    1.6800  -10.6791 Br  0  0  0  0  0  0  0  0  0  0  0  0
   20.9441   -0.5536  -10.2069 C   0  0  0  0  0  0  0  0  0  0  0  0
   22.1242   -1.3304  -10.6164 C   0  0  2  0  0  0  0  0  0  0  0  0
   23.4393   -0.6961  -10.1590 C   0  0  0  0  0  0  0  0  0  0  0  0
   24.5284   -1.6854  -10.4862 C   0  0  2  0  0  0  0  0  0  0  0  0
   25.8687   -1.2767  -10.0245 C   0  0  0  0  0  0  0  0  0  0  0  0
   26.9530   -1.7772  -10.7119 C   0  0  0  0  0  0  0  0  0  0  0  0
   28.2205   -1.4258  -10.3229 C   0  0  0  0  0  0  0  0  0  0  0  0
   28.4001   -0.5818   -9.2560 C   0  0  0  0  0  0  0  0  0  0  0  0
   27.3203   -0.0861   -8.5748 C   0  0  0  0  0  0  0  0  0  0  0  0
   27.6026    1.0849   -7.0961 Br  0  0  0  0  0  0  0  0  0  0  0  0
   26.0384   -0.4337   -8.9585 C   0  0  0  0  0  0  0  0  0  0  0  0
   24.5729   -1.8428  -11.9264 N   0  0  0  0  0  0  0  0  0  0  0  0
   23.3364   -1.7891  -12.6526 C   0  0  0  0  0  0  0  0  0  0  0  0
   23.0412   -1.9422  -13.9488 N   0  0  0  0  0  0  0  0  0  0  0  0
   21.7406   -1.7987  -14.1260 N   0  0  0  0  0  0  0  0  0  0  0  0
   21.2129   -1.5550  -12.9422 N   0  0  0  0  0  0  0  0  0  0  0  0
   22.1746   -1.5472  -12.0407 N   0  0  0  0  0  0  0  0  0  0  0  0
  1  2  1  0
  2  3  2  0
  3  4  1  0
  3  5  1  0
  5  6  2  0
  6  7  1  0
  7  8  1  0
  7  9  2  0
 10  9  1  6
 11 10  1  6
 11 12  1  0
 12 13  1  6
 13 14  2  0
 14 15  1  0
 15 16  2  0
 16 17  1  0
 17 18  1  0
 17 19  2  0
 12 20  1  0
 20 21  1  0
 21 22  2  0
 22 23  1  0
 23 24  2  0
 24 25  1  0
  9  2  1  0
 25 10  1  0
 19 13  1  0
 25 21  1  0
M  END
$$$$
