_rank4
     RDKit          3D

 25 28  0  0  0  0  0  0  0  0999 V2000
   21.8735    1.4715  -10.3911 F   0  0  0  0  0  0  0  0  0  0  0  0
   21.2001    0.3172  -10.3405 C   0  0  0  0  0  0  0  0  0  0  0  0
   19.8501    0.3698   -9.9868 C   0  0  0  0  0  0  0  0  0  0  0  0
   19.0549    2.0701   -9.5989 Br  0  0  0  0  0  0  0  0  0  0  0  0
   19.0980   -0.7845   -9.9172 C   0  0  0  0  0  0  0  0  0  0  0  0
   19.7102   -1.9814  -10.2039 C   0  0  0  0  0  0  0  0  0  0  0  0
   21.0411   -2.0239  -10.5515 C   0  0  0  0  0  0  0  0  0  0  0  0
   21.8601   -3.6983  -10.9433 Br  0  0  0  0  0  0  0  0  0  0  0  0
   21.8242   -0.8754  -10.6297 C   0  0  0  0  0  0  0  0  0  0  0  0
   23.2428   -0.9760  -11.0050 C   0  0  2  0  0  0  0  0  0  0  0  0
   24.1776   -0.9787   -9.7937 C   0  0  0  0  0  0  0  0  0  0  0  0
   25.5598   -1.2691  -10.3202 C   0  0  2  0  0  0  0  0  0  0  0  0
   26.5861   -1.4044   -9.2690 C   0  0  0  0  0  0  0  0  0  0  0  0
   26.6760   -2.6203   -8.6270 C   0  0  0  0  0  0  0  0  0  0  0  0
   27.6153   -2.7972   -7.6432 C   0  0  0  0  0  0  0  0  0  0  0  0
   28.4559   -1.7665   -7.3058 C   0  0  0  0  0  0  0  0  0  0  0  0
   28.3640   -0.5590   -7.9457 C   0  0  0  0  0  0  0  0  0  0  0  0
   29.5467    0.8541   -7.4541 Br  0  0  0  0  0  0  0  0  0  0  0  0
   27.4210   -0.3700   -8.9387 C   0  0  0  0  0  0  0  0  0  0  0  0
   25.9452   -0.1780  -11.1930 N   0  0  0  0  0  0  0  0  0  0  0  0
   24.9284    0.4395  -11.9955 C   0  0  0  0  0  0  0  0  0  0  0  0
   24.9671    1.4127  -12.9132 N   0  0  0  0  0  0  0  0  0  0  0  0
   23.7505    1.6310  -13.3777 N   0  0  0  0  0  0  0  0  0  0  0  0
   22.9421    0.7962  -12.7541 N   0  0  0  0  0  0  0  0  0  0  0  0
   23.6487    0.0682  -11.9123 N   0  0  0  0  0  0  0  0  0  0  0  0
  1  2  1  0
  2  3  2  0
  3  4  1  0
  3  5  1  0
  5  6  2  0
  6  7  1  0
  7  8  1  0
  7  9  2  0
 10  9  1  1
 11 10  1  6
 11 12  1  0
 12 13  1  1
 13 14  2  0
 14 15  1  0
 15 16  2  0
 16 17  1  0
 17 18  1  0
 17 19  2  0
 12 20  1  0
 20 21  1  0
 21 22  2  0
 22 23  1  0
 23 24  2  0
 24 25  1  0
  9  2  1  0
 25 10  1  0
 19 13  1  0
 25 21  1  0
M  END
$$$$
