_rank15
     RDKit          3D

 25 28  0  0  0  0  0  0  0  0999 V2000
   19.8900   -3.3856  -10.6071 F   0  0  0  0  0  0  0  0  0  0  0  0
   19.6387   -2.1047  -10.3163 C   0  0  0  0  0  0  0  0  0  0  0  0
   18.3391   -1.7713   -9.9287 C   0  0  0  0  0  0  0  0  0  0  0  0
   17.0113   -3.1507   -9.8399 Br  0  0  0  0  0  0  0  0  0  0  0  0
   18.0139   -0.4682   -9.6139 C   0  0  0  0  0  0  0  0  0  0  0  0
   18.9984    0.4879   -9.6916 C   0  0  0  0  0  0  0  0  0  0  0  0
   20.2764    0.1504  -10.0744 C   0  0  0  0  0  0  0  0  0  0  0  0
   21.6184    1.4985  -10.1719 Br  0  0  0  0  0  0  0  0  0  0  0  0
   20.6331   -1.1560  -10.3978 C   0  0  0  0  0  0  0  0  0  0  0  0
   22.0134   -1.4634  -10.8024 C   0  0  2  0  0  0  0  0  0  0  0  0
   23.0561   -0.8565   -9.8613 C   0  0  0  0  0  0  0  0  0  0  0  0
   24.3925   -1.4039  -10.2928 C   0  0  2  0  0  0  0  0  0  0  0  0
   25.5159   -0.9950   -9.4283 C   0  0  0  0  0  0  0  0  0  0  0  0
   25.4014   -1.2537   -8.0797 C   0  0  0  0  0  0  0  0  0  0  0  0
   26.4196   -0.8943   -7.2339 C   0  0  0  0  0  0  0  0  0  0  0  0
   27.5411   -0.2819   -7.7338 C   0  0  0  0  0  0  0  0  0  0  0  0
   27.6519   -0.0260   -9.0748 C   0  0  0  0  0  0  0  0  0  0  0  0
   29.2233    0.8265   -9.7390 Br  0  0  0  0  0  0  0  0  0  0  0  0
   26.6316   -0.3841   -9.9361 C   0  0  0  0  0  0  0  0  0  0  0  0
   24.6581   -0.9298  -11.6366 N   0  0  0  0  0  0  0  0  0  0  0  0
   23.5510   -0.7976  -12.5399 C   0  0  0  0  0  0  0  0  0  0  0  0
   23.4714   -0.4411  -13.8273 N   0  0  0  0  0  0  0  0  0  0  0  0
   22.2103   -0.4715  -14.2173 N   0  0  0  0  0  0  0  0  0  0  0  0
   21.4920   -0.8473  -13.1771 N   0  0  0  0  0  0  0  0  0  0  0  0
   22.2978   -1.0478  -12.1532 N   0  0  0  0  0  0  0  0  0  0  0  0
  1  2  1  0
  2  3  2  0
  3  4  1  0
  3  5  1  0
  5  6  2  0
  6  7  1  0
  7  8  1  0
  7  9  2  0
 10  9  1  1
 11 10  1  6
 11 12  1  0
 12 13  1  1
 13 14  2  0
 14 15  1  0
 15 16  2  0
 16 17  1  0
 17 18  1  0
 17 19  2  0
 12 20  1  0
 20 21  1  0
 21 22  2  0
 22 23  1  0
 23 24  2  0
 24 25  1  0
  9  2  1  0
 25 10  1  0
 19 13  1  0
 25 21  1  0
M  END
$$$$
