_rank7
     RDKit          3D

 19 21  0  0  0  0  0  0  0  0999 V2000
   28.4160   -1.2185   -8.0771 C   0  0  0  0  0  0  0  0  0  0  0  0
   27.0378   -0.3590   -8.7543 S   0  0  1  0  0  6  0  0  0  0  0  0
   25.7861   -0.9523   -8.1285 O   0  0  0  0  0  0  0  0  0  0  0  0
   27.0724    1.0969   -8.4343 O   0  0  0  0  0  0  0  0  0  0  0  0
   26.8966   -0.6433  -10.5200 C   0  0  2  0  0  0  0  0  0  0  0  0
   27.3581    0.5164  -11.3150 C   0  0  0  0  0  0  0  0  0  0  0  0
   26.2834    1.5266  -11.6270 C   0  0  0  0  0  0  0  0  0  0  0  0
   25.2172    0.7795  -12.4144 C   0  0  0  0  0  0  0  0  0  0  0  0
   24.6044   -0.2115  -11.4745 C   0  0  1  0  0  0  0  0  0  0  0  0
   25.5401   -1.1609  -10.8512 C   0  0  0  0  0  0  0  0  0  0  0  0
   23.7769    0.4921  -10.4932 N   0  0  0  0  0  0  0  0  0  0  0  0
   22.5756   -0.2680  -10.3512 C   0  0  0  0  0  0  0  0  0  0  0  0
   21.5676   -0.2898   -9.4102 C   0  0  0  0  0  0  0  0  0  0  0  0
   20.5008   -1.1359   -9.5124 C   0  0  0  0  0  0  0  0  0  0  0  0
   20.4389   -1.9896  -10.5916 C   0  0  0  0  0  0  0  0  0  0  0  0
   19.4091   -2.8619  -10.7643 F   0  0  0  0  0  0  0  0  0  0  0  0
   21.4223   -1.9922  -11.5414 C   0  0  0  0  0  0  0  0  0  0  0  0
   22.4958   -1.1331  -11.4284 C   0  0  0  0  0  0  0  0  0  0  0  0
   23.5980   -0.9256  -12.2121 O   0  0  0  0  0  0  0  0  0  0  0  0
  2  1  1  1
  2  3  2  0
  2  4  2  0
  5  2  1  1
  6  5  1  1
  7  6  1  6
  8  7  1  6
  8  9  1  0
 10  9  1  6
  9 11  1  1
 11 12  1  0
 12 13  2  0
 13 14  1  0
 14 15  2  0
 15 16  1  0
 15 17  1  0
 17 18  2  0
 18 19  1  0
 10  5  1  0
 18 12  1  0
  9 19  1  0
M  END
$$$$
