_rank15
     RDKit          3D

 19 21  0  0  0  0  0  0  0  0999 V2000
   28.3874   -0.2070  -12.0766 C   0  0  0  0  0  0  0  0  0  0  0  0
   26.7125    0.3325  -12.0578 S   0  0  1  0  0  6  0  0  0  0  0  0
   26.5745    1.4075  -13.1236 O   0  0  0  0  0  0  0  0  0  0  0  0
   25.7641   -0.7708  -12.3847 O   0  0  0  0  0  0  0  0  0  0  0  0
   26.2988    1.1181  -10.4990 C   0  0  2  0  0  0  0  0  0  0  0  0
   27.0816    0.5713   -9.3685 C   0  0  0  0  0  0  0  0  0  0  0  0
   26.4419   -0.6065   -8.6782 C   0  0  0  0  0  0  0  0  0  0  0  0
   25.0997   -0.1134   -8.1582 C   0  0  0  0  0  0  0  0  0  0  0  0
   24.2556    0.1810   -9.3591 C   0  0  1  0  0  0  0  0  0  0  0  0
   24.8214    1.1476  -10.3136 C   0  0  0  0  0  0  0  0  0  0  0  0
   23.8573   -1.0749   -9.9967 N   0  0  0  0  0  0  0  0  0  0  0  0
   22.4787   -0.9371  -10.3455 C   0  0  0  0  0  0  0  0  0  0  0  0
   21.6365   -1.6275  -11.1916 C   0  0  0  0  0  0  0  0  0  0  0  0
   20.3249   -1.2813  -11.3475 C   0  0  0  0  0  0  0  0  0  0  0  0
   19.8380   -0.2086  -10.6336 C   0  0  0  0  0  0  0  0  0  0  0  0
   18.5436    0.1982  -10.7342 F   0  0  0  0  0  0  0  0  0  0  0  0
   20.6475    0.4961   -9.7867 C   0  0  0  0  0  0  0  0  0  0  0  0
   21.9712    0.1377   -9.6367 C   0  0  0  0  0  0  0  0  0  0  0  0
   22.9860    0.6521   -8.8766 O   0  0  0  0  0  0  0  0  0  0  0  0
  2  1  1  1
  2  3  2  0
  2  4  2  0
  5  2  1  6
  6  5  1  1
  7  6  1  6
  8  7  1  6
  8  9  1  0
 10  9  1  6
  9 11  1  6
 11 12  1  0
 12 13  2  0
 13 14  1  0
 14 15  2  0
 15 16  1  0
 15 17  1  0
 17 18  2  0
 18 19  1  0
 10  5  1  0
 18 12  1  0
  9 19  1  0
M  END
$$$$
