_rank14
     RDKit          3D

 19 21  0  0  0  0  0  0  0  0999 V2000
   27.1457    1.4922   -9.0200 C   0  0  0  0  0  0  0  0  0  0  0  0
   26.1162    0.1881   -8.4405 S   0  0  1  0  0  6  0  0  0  0  0  0
   26.8835   -0.5391   -7.3484 O   0  0  0  0  0  0  0  0  0  0  0  0
   24.8430    0.6968   -7.8544 O   0  0  0  0  0  0  0  0  0  0  0  0
   25.8120   -1.0229   -9.7287 C   0  0  2  0  0  0  0  0  0  0  0  0
   26.5685   -0.7296  -10.9662 C   0  0  0  0  0  0  0  0  0  0  0  0
   25.8413    0.1540  -11.9477 C   0  0  0  0  0  0  0  0  0  0  0  0
   24.5619   -0.5840  -12.3129 C   0  0  0  0  0  0  0  0  0  0  0  0
   23.7198   -0.6221  -11.0757 C   0  0  1  0  0  0  0  0  0  0  0  0
   24.3481   -1.2391   -9.8967 C   0  0  0  0  0  0  0  0  0  0  0  0
   23.1947    0.7162  -10.8000 N   0  0  0  0  0  0  0  0  0  0  0  0
   21.8263    0.5491  -10.4246 C   0  0  0  0  0  0  0  0  0  0  0  0
   20.9054    1.3598   -9.7948 C   0  0  0  0  0  0  0  0  0  0  0  0
   19.6272    0.9472   -9.5489 C   0  0  0  0  0  0  0  0  0  0  0  0
   19.2563   -0.3185   -9.9458 C   0  0  0  0  0  0  0  0  0  0  0  0
   18.0020   -0.8024   -9.7368 F   0  0  0  0  0  0  0  0  0  0  0  0
   20.1460   -1.1462  -10.5725 C   0  0  0  0  0  0  0  0  0  0  0  0
   21.4350   -0.7193  -10.8160 C   0  0  0  0  0  0  0  0  0  0  0  0
   22.5097   -1.3221  -11.4108 O   0  0  0  0  0  0  0  0  0  0  0  0
  2  1  1  6
  2  3  2  0
  2  4  2  0
  5  2  1  1
  6  5  1  1
  7  6  1  6
  8  7  1  6
  8  9  1  0
 10  9  1  6
  9 11  1  1
 11 12  1  0
 12 13  2  0
 13 14  1  0
 14 15  2  0
 15 16  1  0
 15 17  1  0
 17 18  2  0
 18 19  1  0
 10  5  1  0
 18 12  1  0
  9 19  1  0
M  END
$$$$
