_rank1
     RDKit          3D

 19 21  0  0  0  0  0  0  0  0999 V2000
   26.7513    1.4744   -8.5217 C   0  0  0  0  0  0  0  0  0  0  0  0
   27.1165   -0.2189   -8.8309 S   0  0  1  0  0  6  0  0  0  0  0  0
   28.5733   -0.4402   -8.4576 O   0  0  0  0  0  0  0  0  0  0  0  0
   26.2800   -1.1335   -8.0018 O   0  0  0  0  0  0  0  0  0  0  0  0
   26.9839   -0.6054  -10.5777 C   0  0  2  0  0  0  0  0  0  0  0  0
   27.5005    0.4841  -11.4355 C   0  0  0  0  0  0  0  0  0  0  0  0
   26.4708    1.5148  -11.8232 C   0  0  0  0  0  0  0  0  0  0  0  0
   25.3844    0.7633  -12.5781 C   0  0  0  0  0  0  0  0  0  0  0  0
   24.7217   -0.1432  -11.5880 C   0  0  1  0  0  0  0  0  0  0  0  0
   25.6115   -1.0886  -10.8953 C   0  0  0  0  0  0  0  0  0  0  0  0
   23.9122    0.6515  -10.6628 N   0  0  0  0  0  0  0  0  0  0  0  0
   22.6798   -0.0505  -10.4912 C   0  0  0  0  0  0  0  0  0  0  0  0
   21.6612    0.0254   -9.5646 C   0  0  0  0  0  0  0  0  0  0  0  0
   20.5625   -0.7828   -9.6297 C   0  0  0  0  0  0  0  0  0  0  0  0
   20.4785   -1.6981  -10.6556 C   0  0  0  0  0  0  0  0  0  0  0  0
   19.4166   -2.5380  -10.7889 F   0  0  0  0  0  0  0  0  0  0  0  0
   21.4717   -1.7978  -11.5899 C   0  0  0  0  0  0  0  0  0  0  0  0
   22.5774   -0.9764  -11.5147 C   0  0  0  0  0  0  0  0  0  0  0  0
   23.6959   -0.8609  -12.2944 O   0  0  0  0  0  0  0  0  0  0  0  0
  2  1  1  6
  2  3  2  0
  2  4  2  0
  5  2  1  1
  6  5  1  1
  7  6  1  6
  8  7  1  6
  8  9  1  0
 10  9  1  6
  9 11  1  1
 11 12  1  0
 12 13  2  0
 13 14  1  0
 14 15  2  0
 15 16  1  0
 15 17  1  0
 17 18  2  0
 18 19  1  0
 10  5  1  0
 18 12  1  0
  9 19  1  0
M  END
$$$$
