_rank18
     RDKit          3D

 19 21  0  0  0  0  0  0  0  0999 V2000
   28.4379   -2.7532   -9.7053 C   0  0  0  0  0  0  0  0  0  0  0  0
   27.2105   -1.6945   -9.0205 S   0  0  1  0  0  6  0  0  0  0  0  0
   25.9109   -2.4817   -8.9775 O   0  0  0  0  0  0  0  0  0  0  0  0
   27.5454   -1.2735   -7.6298 O   0  0  0  0  0  0  0  0  0  0  0  0
   26.9037   -0.2811  -10.0819 C   0  0  2  0  0  0  0  0  0  0  0  0
   27.1925    1.0031   -9.4058 C   0  0  0  0  0  0  0  0  0  0  0  0
   26.0200    1.5971   -8.6674 C   0  0  0  0  0  0  0  0  0  0  0  0
   24.9335    1.8195   -9.7091 C   0  0  0  0  0  0  0  0  0  0  0  0
   24.4977    0.4640  -10.1715 C   0  0  1  0  0  0  0  0  0  0  0  0
   25.5610   -0.3953  -10.7160 C   0  0  0  0  0  0  0  0  0  0  0  0
   23.7301   -0.1911   -9.1111 N   0  0  0  0  0  0  0  0  0  0  0  0
   22.6092   -0.8128   -9.7422 C   0  0  0  0  0  0  0  0  0  0  0  0
   21.7111   -1.7824   -9.3485 C   0  0  0  0  0  0  0  0  0  0  0  0
   20.7040   -2.2100  -10.1653 C   0  0  0  0  0  0  0  0  0  0  0  0
   20.5902   -1.6498  -11.4185 C   0  0  0  0  0  0  0  0  0  0  0  0
   19.6142   -2.0222  -12.2902 F   0  0  0  0  0  0  0  0  0  0  0  0
   21.4648   -0.6864  -11.8384 C   0  0  0  0  0  0  0  0  0  0  0  0
   22.4788   -0.2617  -11.0049 C   0  0  0  0  0  0  0  0  0  0  0  0
   23.4735    0.6650  -11.1600 O   0  0  0  0  0  0  0  0  0  0  0  0
  2  1  1  6
  2  3  2  0
  2  4  2  0
  5  2  1  1
  6  5  1  1
  7  6  1  6
  8  7  1  6
  8  9  1  0
 10  9  1  6
  9 11  1  1
 11 12  1  0
 12 13  2  0
 13 14  1  0
 14 15  2  0
 15 16  1  0
 15 17  1  0
 17 18  2  0
 18 19  1  0
 10  5  1  0
 18 12  1  0
  9 19  1  0
M  END
$$$$
