_rank3
     RDKit          3D

 19 21  0  0  0  0  0  0  0  0999 V2000
   28.2896   -0.3846   -7.9789 C   0  0  0  0  0  0  0  0  0  0  0  0
   26.7422    0.0314   -8.7062 S   0  0  1  0  0  6  0  0  0  0  0  0
   25.6618   -0.6603   -7.8909 O   0  0  0  0  0  0  0  0  0  0  0  0
   26.4827    1.4994   -8.6715 O   0  0  0  0  0  0  0  0  0  0  0  0
   26.6082   -0.6231  -10.3711 C   0  0  2  0  0  0  0  0  0  0  0  0
   27.1977    0.2838  -11.3810 C   0  0  0  0  0  0  0  0  0  0  0  0
   26.2345    1.2943  -11.9502 C   0  0  0  0  0  0  0  0  0  0  0  0
   25.1153    0.4927  -12.5981 C   0  0  0  0  0  0  0  0  0  0  0  0
   24.3890   -0.2043  -11.4900 C   0  0  1  0  0  0  0  0  0  0  0  0
   25.2138   -1.0740  -10.6362 C   0  0  0  0  0  0  0  0  0  0  0  0
   23.6162    0.7727  -10.7212 N   0  0  0  0  0  0  0  0  0  0  0  0
   22.3430    0.1771  -10.4656 C   0  0  0  0  0  0  0  0  0  0  0  0
   21.3196    0.4576   -9.5848 C   0  0  0  0  0  0  0  0  0  0  0  0
   20.1765   -0.2881   -9.5430 C   0  0  0  0  0  0  0  0  0  0  0  0
   20.0515   -1.3504  -10.4108 C   0  0  0  0  0  0  0  0  0  0  0  0
   18.9441   -2.1405  -10.4304 F   0  0  0  0  0  0  0  0  0  0  0  0
   21.0483   -1.6543  -11.2959 C   0  0  0  0  0  0  0  0  0  0  0  0
   22.1991   -0.8943  -11.3297 C   0  0  0  0  0  0  0  0  0  0  0  0
   23.3316   -0.9682  -12.0940 O   0  0  0  0  0  0  0  0  0  0  0  0
  2  1  1  1
  2  3  2  0
  2  4  2  0
  5  2  1  1
  6  5  1  1
  7  6  1  6
  8  7  1  6
  8  9  1  0
 10  9  1  6
  9 11  1  1
 11 12  1  0
 12 13  2  0
 13 14  1  0
 14 15  2  0
 15 16  1  0
 15 17  1  0
 17 18  2  0
 18 19  1  0
 10  5  1  0
 18 12  1  0
  9 19  1  0
M  END
$$$$
