_rank11
     RDKit          3D

 19 21  0  0  0  0  0  0  0  0999 V2000
   25.8204   -0.2981  -12.5919 C   0  0  0  0  0  0  0  0  0  0  0  0
   27.0880    0.6064  -11.7725 S   0  0  1  0  0  6  0  0  0  0  0  0
   28.2821   -0.3230  -11.6281 O   0  0  0  0  0  0  0  0  0  0  0  0
   27.5201    1.8004  -12.5544 O   0  0  0  0  0  0  0  0  0  0  0  0
   26.5968    1.0518  -10.1056 C   0  0  2  0  0  0  0  0  0  0  0  0
   27.3462    0.2958   -9.0776 C   0  0  0  0  0  0  0  0  0  0  0  0
   26.7051   -1.0061   -8.6694 C   0  0  0  0  0  0  0  0  0  0  0  0
   25.3334   -0.6468   -8.1178 C   0  0  0  0  0  0  0  0  0  0  0  0
   24.5309   -0.1243   -9.2685 C   0  0  1  0  0  0  0  0  0  0  0  0
   25.1131    1.0240   -9.9813 C   0  0  0  0  0  0  0  0  0  0  0  0
   24.1847   -1.2286  -10.1648 N   0  0  0  0  0  0  0  0  0  0  0  0
   22.8182   -1.0402  -10.5368 C   0  0  0  0  0  0  0  0  0  0  0  0
   22.0247   -1.5540  -11.5409 C   0  0  0  0  0  0  0  0  0  0  0  0
   20.7132   -1.2001  -11.6790 C   0  0  0  0  0  0  0  0  0  0  0  0
   20.1760   -0.3021  -10.7833 C   0  0  0  0  0  0  0  0  0  0  0  0
   18.8782    0.1001  -10.8543 F   0  0  0  0  0  0  0  0  0  0  0  0
   20.9365    0.2252   -9.7769 C   0  0  0  0  0  0  0  0  0  0  0  0
   22.2606   -0.1393   -9.6466 C   0  0  0  0  0  0  0  0  0  0  0  0
   23.2337    0.2221   -8.7550 O   0  0  0  0  0  0  0  0  0  0  0  0
  2  1  1  6
  2  3  2  0
  2  4  2  0
  5  2  1  6
  6  5  1  1
  7  6  1  6
  8  7  1  6
  8  9  1  0
 10  9  1  6
  9 11  1  6
 11 12  1  0
 12 13  2  0
 13 14  1  0
 14 15  2  0
 15 16  1  0
 15 17  1  0
 17 18  2  0
 18 19  1  0
 10  5  1  0
 18 12  1  0
  9 19  1  0
M  END
$$$$
