_rank10
     RDKit          3D

 20 22  0  0  0  0  0  0  0  0999 V2000
   25.3201   -0.1132  -13.0166 O   0  0  0  0  0  0  0  0  0  0  0  0
   26.1563   -0.0743  -12.1109 N   0  0  0  0  0  4  0  0  0  0  0  0
   27.5186   -0.0474  -12.3782 O   0  0  0  0  0  1  0  0  0  0  0  0
   25.7380   -0.0358  -10.7559 C   0  0  0  0  0  0  0  0  0  0  0  0
   24.4335   -0.1466  -10.3347 C   0  0  0  0  0  0  0  0  0  0  0  0
   23.3594   -0.3033  -11.2331 N   0  0  0  0  0  0  0  0  0  0  0  0
   22.0059   -0.4478  -10.9436 C   0  0  0  0  0  0  0  0  0  0  0  0
   21.3756    0.4336  -10.0967 C   0  0  0  0  0  0  0  0  0  0  0  0
   20.0157    0.2816   -9.8138 C   0  0  0  0  0  0  0  0  0  0  0  0
   19.2976   -0.7437  -10.3751 C   0  0  0  0  0  0  0  0  0  0  0  0
   19.9211   -1.6307  -11.2243 C   0  0  0  0  0  0  0  0  0  0  0  0
   19.0238   -2.9624  -11.9638 Cl  0  0  0  0  0  0  0  0  0  0  0  0
   21.2811   -1.4721  -11.5025 C   0  0  0  0  0  0  0  0  0  0  0  0
   24.1127   -0.1401   -8.9818 C   0  0  0  0  0  0  0  0  0  0  0  0
   25.0752   -0.0229   -8.0019 C   0  0  0  0  0  0  0  0  0  0  0  0
   26.3788    0.0883   -8.4289 C   0  0  0  0  0  0  0  0  0  0  0  0
   27.5360    0.2162   -7.7646 N   0  0  0  0  0  0  0  0  0  0  0  0
   28.5066    0.2846   -8.6258 O   0  0  0  0  0  0  0  0  0  0  0  0
   28.0594    0.2085   -9.8503 N   0  0  0  0  0  0  0  0  0  0  0  0
   26.7191    0.0841   -9.7570 C   0  0  0  0  0  0  0  0  0  0  0  0
  1  2  2  0
  2  3  1  0
  2  4  1  0
  4  5  2  0
  5  6  1  0
  6  7  1  0
  7  8  2  0
  8  9  1  0
  9 10  2  0
 10 11  1  0
 11 12  1  0
 11 13  2  0
  5 14  1  0
 14 15  2  0
 15 16  1  0
 16 17  2  0
 17 18  1  0
 18 19  1  0
 19 20  2  0
 20  4  1  0
 13  7  1  0
 20 16  1  0
M  CHG  2   2   1   3  -1
M  END
$$$$
