_rank20
     RDKit          3D

 20 22  0  0  0  0  0  0  0  0999 V2000
   27.7578    0.1966  -12.1465 O   0  0  0  0  0  0  0  0  0  0  0  0
   26.5549   -0.0489  -12.0286 N   0  0  0  0  0  4  0  0  0  0  0  0
   25.7567   -0.3252  -13.1306 O   0  0  0  0  0  1  0  0  0  0  0  0
   25.9553   -0.0742  -10.7431 C   0  0  0  0  0  0  0  0  0  0  0  0
   24.6378   -0.3839  -10.4987 C   0  0  0  0  0  0  0  0  0  0  0  0
   23.7323   -0.7046  -11.5296 N   0  0  0  0  0  0  0  0  0  0  0  0
   22.3465   -0.8103  -11.4595 C   0  0  0  0  0  0  0  0  0  0  0  0
   21.6139   -1.1321  -12.5781 C   0  0  0  0  0  0  0  0  0  0  0  0
   20.2230   -1.2381  -12.4973 C   0  0  0  0  0  0  0  0  0  0  0  0
   19.5758   -1.0234  -11.3069 C   0  0  0  0  0  0  0  0  0  0  0  0
   20.3019   -0.7007  -10.1820 C   0  0  0  0  0  0  0  0  0  0  0  0
   19.4979   -0.4179   -8.6332 Cl  0  0  0  0  0  0  0  0  0  0  0  0
   21.6924   -0.5967  -10.2707 C   0  0  0  0  0  0  0  0  0  0  0  0
   24.1387   -0.4260   -9.2016 C   0  0  0  0  0  0  0  0  0  0  0  0
   24.9298   -0.1615   -8.1041 C   0  0  0  0  0  0  0  0  0  0  0  0
   26.2471    0.1486   -8.3545 C   0  0  0  0  0  0  0  0  0  0  0  0
   27.2701    0.4533   -7.5437 N   0  0  0  0  0  0  0  0  0  0  0  0
   28.3270    0.6696   -8.2680 O   0  0  0  0  0  0  0  0  0  0  0  0
   28.0674    0.5248   -9.5395 N   0  0  0  0  0  0  0  0  0  0  0  0
   26.7616    0.1958   -9.6244 C   0  0  0  0  0  0  0  0  0  0  0  0
  1  2  2  0
  2  3  1  0
  2  4  1  0
  4  5  2  0
  5  6  1  0
  6  7  1  0
  7  8  2  0
  8  9  1  0
  9 10  2  0
 10 11  1  0
 11 12  1  0
 11 13  2  0
  5 14  1  0
 14 15  2  0
 15 16  1  0
 16 17  2  0
 17 18  1  0
 18 19  1  0
 19 20  2  0
 20  4  1  0
 13  7  1  0
 20 16  1  0
M  CHG  2   2   1   3  -1
M  END
$$$$
