_rank7
     RDKit          3D

 20 22  0  0  0  0  0  0  0  0999 V2000
   26.7708   -0.4154  -12.7405 O   0  0  0  0  0  0  0  0  0  0  0  0
   25.7194    0.0391  -12.2834 N   0  0  0  0  0  4  0  0  0  0  0  0
   24.7488    0.5965  -13.1052 O   0  0  0  0  0  1  0  0  0  0  0  0
   25.4659   -0.0161  -10.8886 C   0  0  0  0  0  0  0  0  0  0  0  0
   24.2878   -0.4436  -10.3223 C   0  0  0  0  0  0  0  0  0  0  0  0
   23.1884   -0.8695  -11.0941 N   0  0  0  0  0  0  0  0  0  0  0  0
   21.8375   -0.6026  -10.8932 C   0  0  0  0  0  0  0  0  0  0  0  0
   21.4434    0.5155  -10.1962 C   0  0  0  0  0  0  0  0  0  0  0  0
   20.0844    0.7761  -10.0014 C   0  0  0  0  0  0  0  0  0  0  0  0
   19.1329   -0.0765  -10.5010 C   0  0  0  0  0  0  0  0  0  0  0  0
   19.5190   -1.1984  -11.2001 C   0  0  0  0  0  0  0  0  0  0  0  0
   18.3175   -2.3168  -11.8565 Cl  0  0  0  0  0  0  0  0  0  0  0  0
   20.8797   -1.4522  -11.3908 C   0  0  0  0  0  0  0  0  0  0  0  0
   24.1357   -0.5058   -8.9416 C   0  0  0  0  0  0  0  0  0  0  0  0
   25.1469   -0.1453   -8.0770 C   0  0  0  0  0  0  0  0  0  0  0  0
   26.3234    0.2825   -8.6489 C   0  0  0  0  0  0  0  0  0  0  0  0
   27.4824    0.6990   -8.1199 N   0  0  0  0  0  0  0  0  0  0  0  0
   28.2984    0.9991   -9.0856 O   0  0  0  0  0  0  0  0  0  0  0  0
   27.7441    0.8042  -10.2518 N   0  0  0  0  0  0  0  0  0  0  0  0
   26.4966    0.3518  -10.0072 C   0  0  0  0  0  0  0  0  0  0  0  0
  1  2  2  0
  2  3  1  0
  2  4  1  0
  4  5  2  0
  5  6  1  0
  6  7  1  0
  7  8  2  0
  8  9  1  0
  9 10  2  0
 10 11  1  0
 11 12  1  0
 11 13  2  0
  5 14  1  0
 14 15  2  0
 15 16  1  0
 16 17  2  0
 17 18  1  0
 18 19  1  0
 19 20  2  0
 20  4  1  0
 13  7  1  0
 20 16  1  0
M  CHG  2   2   1   3  -1
M  END
$$$$
