_rank5
     RDKit          3D

 20 22  0  0  0  0  0  0  0  0999 V2000
   25.2672    0.2393  -13.0714 O   0  0  0  0  0  0  0  0  0  0  0  0
   26.1365    0.1454  -12.2015 N   0  0  0  0  0  4  0  0  0  0  0  0
   27.4884    0.1858  -12.5156 O   0  0  0  0  0  1  0  0  0  0  0  0
   25.7687    0.0116  -10.8379 C   0  0  0  0  0  0  0  0  0  0  0  0
   24.4758   -0.0972  -10.3818 C   0  0  0  0  0  0  0  0  0  0  0  0
   23.3641   -0.0759  -11.2473 N   0  0  0  0  0  0  0  0  0  0  0  0
   22.0762   -0.5467  -11.0100 C   0  0  0  0  0  0  0  0  0  0  0  0
   21.8097   -1.8955  -11.0409 C   0  0  0  0  0  0  0  0  0  0  0  0
   20.5138   -2.3588  -10.7993 C   0  0  0  0  0  0  0  0  0  0  0  0
   19.4976   -1.4774  -10.5299 C   0  0  0  0  0  0  0  0  0  0  0  0
   19.7559   -0.1250  -10.4971 C   0  0  0  0  0  0  0  0  0  0  0  0
   18.4685    1.0366  -10.1529 Cl  0  0  0  0  0  0  0  0  0  0  0  0
   21.0543    0.3306  -10.7396 C   0  0  0  0  0  0  0  0  0  0  0  0
   24.2035   -0.2668   -9.0288 C   0  0  0  0  0  0  0  0  0  0  0  0
   25.2046   -0.3335   -8.0835 C   0  0  0  0  0  0  0  0  0  0  0  0
   26.4964   -0.2234   -8.5454 C   0  0  0  0  0  0  0  0  0  0  0  0
   27.6813   -0.2440   -7.9190 N   0  0  0  0  0  0  0  0  0  0  0  0
   28.6232   -0.0996   -8.8023 O   0  0  0  0  0  0  0  0  0  0  0  0
   28.1300    0.0185  -10.0056 N   0  0  0  0  0  0  0  0  0  0  0  0
   26.7891   -0.0559   -9.8743 C   0  0  0  0  0  0  0  0  0  0  0  0
  1  2  2  0
  2  3  1  0
  2  4  1  0
  4  5  2  0
  5  6  1  0
  6  7  1  0
  7  8  2  0
  8  9  1  0
  9 10  2  0
 10 11  1  0
 11 12  1  0
 11 13  2  0
  5 14  1  0
 14 15  2  0
 15 16  1  0
 16 17  2  0
 17 18  1  0
 18 19  1  0
 19 20  2  0
 20  4  1  0
 13  7  1  0
 20 16  1  0
M  CHG  2   2   1   3  -1
M  END
$$$$
