_rank18
     RDKit          3D

 15 15  0  0  0  0  0  0  0  0999 V2000
   27.1018   -1.4193  -10.8158 C   0  0  0  0  0  0  0  0  0  0  0  0
   26.2000   -0.6711   -9.4743 S   0  0  1  0  0  6  0  0  0  0  0  0
   26.6402   -1.3534   -8.2115 O   0  0  0  0  0  0  0  0  0  0  0  0
   26.5208    0.7777   -9.4557 O   0  0  0  0  0  0  0  0  0  0  0  0
   24.5015   -0.9582   -9.7722 C   0  0  0  0  0  0  0  0  0  0  0  0
   24.0856   -2.1945  -10.2044 C   0  0  0  0  0  0  0  0  0  0  0  0
   22.7495   -2.4811  -10.4574 C   0  0  0  0  0  0  0  0  0  0  0  0
   22.3313   -3.6973  -10.8837 F   0  0  0  0  0  0  0  0  0  0  0  0
   21.8456   -1.4617  -10.2548 C   0  0  0  0  0  0  0  0  0  0  0  0
   22.2391   -0.2053   -9.8192 C   0  0  0  0  0  0  0  0  0  0  0  0
   21.1818    0.8232   -9.6326 C   0  0  2  0  0  0  0  0  0  0  0  0
   20.1562    0.6465  -10.6193 N   0  0  0  0  0  0  0  0  0  0  0  0
   21.7395    2.1827   -9.8061 C   0  0  0  0  0  0  0  0  0  0  0  0
   22.1811    3.2451   -9.9556 N   0  0  0  0  0  0  0  0  0  0  0  0
   23.5544    0.0406   -9.5812 C   0  0  0  0  0  0  0  0  0  0  0  0
  1  2  1  6
  2  3  2  0
  2  4  2  0
  2  5  1  6
  5  6  2  0
  6  7  1  0
  7  8  1  0
  7  9  2  0
  9 10  1  0
 10 11  1  0
 11 12  1  6
 11 13  1  0
 13 14  3  0
 10 15  2  0
 15  5  1  0
M  END
$$$$
