_rank12
     RDKit          3D

 15 15  0  0  0  0  0  0  0  0999 V2000
   27.3281    1.2285   -7.7476 C   0  0  0  0  0  0  0  0  0  0  0  0
   27.1188   -0.3609   -8.5239 S   0  0  1  0  0  6  0  0  0  0  0  0
   28.3416   -0.6089   -9.3590 O   0  0  0  0  0  0  0  0  0  0  0  0
   26.9689   -1.3790   -7.4546 O   0  0  0  0  0  0  0  0  0  0  0  0
   25.6931   -0.2588   -9.5303 C   0  0  0  0  0  0  0  0  0  0  0  0
   24.4681   -0.6039   -9.0124 C   0  0  0  0  0  0  0  0  0  0  0  0
   23.3008   -0.5428   -9.7641 C   0  0  0  0  0  0  0  0  0  0  0  0
   22.0893   -0.8813   -9.2610 F   0  0  0  0  0  0  0  0  0  0  0  0
   23.4227   -0.1163  -11.0683 C   0  0  0  0  0  0  0  0  0  0  0  0
   24.6469    0.2377  -11.6152 C   0  0  0  0  0  0  0  0  0  0  0  0
   24.6664    0.6846  -13.0330 C   0  0  2  0  0  0  0  0  0  0  0  0
   23.7808   -0.1336  -13.8098 N   0  0  0  0  0  0  0  0  0  0  0  0
   26.0232    0.5438  -13.6063 C   0  0  0  0  0  0  0  0  0  0  0  0
   27.0928    0.4365  -14.0427 N   0  0  0  0  0  0  0  0  0  0  0  0
   25.7687    0.1661  -10.8512 C   0  0  0  0  0  0  0  0  0  0  0  0
  1  2  1  6
  2  3  2  0
  2  4  2  0
  2  5  1  6
  5  6  2  0
  6  7  1  0
  7  8  1  0
  7  9  2  0
  9 10  1  0
 10 11  1  0
 11 12  1  6
 11 13  1  0
 13 14  3  0
 10 15  2  0
 15  5  1  0
M  END
$$$$
