_rank19
     RDKit          3D

 15 15  0  0  0  0  0  0  0  0999 V2000
   26.0138   -0.5558   -7.4550 C   0  0  0  0  0  0  0  0  0  0  0  0
   26.0158   -0.1094   -9.1793 S   0  0  1  0  0  6  0  0  0  0  0  0
   26.5630    1.2854   -9.2737 O   0  0  0  0  0  0  0  0  0  0  0  0
   26.8680   -1.0834   -9.9057 O   0  0  0  0  0  0  0  0  0  0  0  0
   24.3564   -0.1609   -9.7266 C   0  0  0  0  0  0  0  0  0  0  0  0
   23.4114    0.6232   -9.1097 C   0  0  0  0  0  0  0  0  0  0  0  0
   22.0780    0.6242   -9.5010 C   0  0  0  0  0  0  0  0  0  0  0  0
   21.1403    1.3942   -8.8981 F   0  0  0  0  0  0  0  0  0  0  0  0
   21.7362   -0.2042  -10.5472 C   0  0  0  0  0  0  0  0  0  0  0  0
   22.6702   -1.0052  -11.1867 C   0  0  0  0  0  0  0  0  0  0  0  0
   22.1949   -1.8621  -12.3048 C   0  0  2  0  0  0  0  0  0  0  0  0
   22.3390   -3.2441  -11.9495 N   0  0  0  0  0  0  0  0  0  0  0  0
   23.0022   -1.6272  -13.5223 C   0  0  0  0  0  0  0  0  0  0  0  0
   23.6322   -1.4287  -14.4761 N   0  0  0  0  0  0  0  0  0  0  0  0
   23.9663   -0.9814  -10.7780 C   0  0  0  0  0  0  0  0  0  0  0  0
  1  2  1  6
  2  3  2  0
  2  4  2  0
  2  5  1  6
  5  6  2  0
  6  7  1  0
  7  8  1  0
  7  9  2  0
  9 10  1  0
 10 11  1  0
 11 12  1  1
 11 13  1  0
 13 14  3  0
 10 15  2  0
 15  5  1  0
M  END
$$$$
