_rank7
     RDKit          3D

 15 15  0  0  0  0  0  0  0  0999 V2000
   21.2463    0.5821  -10.1014 C   0  0  0  0  0  0  0  0  0  0  0  0
   21.9621   -1.0389  -10.2823 S   0  0  1  0  0  6  0  0  0  0  0  0
   21.6370   -1.8070   -9.0341 O   0  0  0  0  0  0  0  0  0  0  0  0
   21.3688   -1.6720  -11.4863 O   0  0  0  0  0  0  0  0  0  0  0  0
   23.6894   -0.8240  -10.4438 C   0  0  0  0  0  0  0  0  0  0  0  0
   24.5138   -1.1161   -9.3840 C   0  0  0  0  0  0  0  0  0  0  0  0
   25.8935   -0.9651   -9.4537 C   0  0  0  0  0  0  0  0  0  0  0  0
   26.7131   -1.2508   -8.4134 F   0  0  0  0  0  0  0  0  0  0  0  0
   26.4092   -0.5042  -10.6449 C   0  0  0  0  0  0  0  0  0  0  0  0
   25.5995   -0.2022  -11.7294 C   0  0  0  0  0  0  0  0  0  0  0  0
   26.2590    0.2884  -12.9682 C   0  0  2  0  0  0  0  0  0  0  0  0
   26.8710   -0.8104  -13.6574 N   0  0  0  0  0  0  0  0  0  0  0  0
   27.3253    1.2610  -12.6419 C   0  0  0  0  0  0  0  0  0  0  0  0
   28.1696    2.0182  -12.3970 N   0  0  0  0  0  0  0  0  0  0  0  0
   24.2536   -0.3616  -11.6265 C   0  0  0  0  0  0  0  0  0  0  0  0
  1  2  1  6
  2  3  2  0
  2  4  2  0
  2  5  1  6
  5  6  2  0
  6  7  1  0
  7  8  1  0
  7  9  2  0
  9 10  1  0
 10 11  1  0
 11 12  1  1
 11 13  1  0
 13 14  3  0
 10 15  2  0
 15  5  1  0
M  END
$$$$
