_rank2
     RDKit          3D

 15 15  0  0  0  0  0  0  0  0999 V2000
   27.2120    1.0468   -7.6866 C   0  0  0  0  0  0  0  0  0  0  0  0
   27.5293   -0.4647   -8.5739 S   0  0  1  0  0  6  0  0  0  0  0  0
   28.9379   -0.3877   -9.0877 O   0  0  0  0  0  0  0  0  0  0  0  0
   27.3500   -1.5974   -7.6321 O   0  0  0  0  0  0  0  0  0  0  0  0
   26.3908   -0.5328   -9.8987 C   0  0  0  0  0  0  0  0  0  0  0  0
   26.8397   -0.3935  -11.1900 C   0  0  0  0  0  0  0  0  0  0  0  0
   25.9821   -0.4390  -12.2826 C   0  0  0  0  0  0  0  0  0  0  0  0
   26.4167   -0.3026  -13.5585 F   0  0  0  0  0  0  0  0  0  0  0  0
   24.6446   -0.6321  -12.0156 C   0  0  0  0  0  0  0  0  0  0  0  0
   24.1658   -0.7754  -10.7221 C   0  0  0  0  0  0  0  0  0  0  0  0
   22.7037   -0.9793  -10.5457 C   0  0  2  0  0  0  0  0  0  0  0  0
   22.0075   -0.5200  -11.7125 N   0  0  0  0  0  0  0  0  0  0  0  0
   22.2034   -0.2007   -9.3912 C   0  0  0  0  0  0  0  0  0  0  0  0
   21.8211    0.4200   -8.4887 N   0  0  0  0  0  0  0  0  0  0  0  0
   25.0328   -0.7258   -9.6766 C   0  0  0  0  0  0  0  0  0  0  0  0
  1  2  1  6
  2  3  2  0
  2  4  2  0
  2  5  1  6
  5  6  2  0
  6  7  1  0
  7  8  1  0
  7  9  2  0
  9 10  1  0
 10 11  1  0
 11 12  1  6
 11 13  1  0
 13 14  3  0
 10 15  2  0
 15  5  1  0
M  END
$$$$
