_rank10
     RDKit          3D

 15 15  0  0  0  0  0  0  0  0999 V2000
   20.1620    0.1398   -9.0407 C   0  0  0  0  0  0  0  0  0  0  0  0
   20.8741   -0.8950  -10.3035 S   0  0  1  0  0  6  0  0  0  0  0  0
   20.4633   -2.3070  -10.0011 O   0  0  0  0  0  0  0  0  0  0  0  0
   20.3538   -0.4416  -11.6174 O   0  0  0  0  0  0  0  0  0  0  0  0
   22.6100   -0.7195  -10.1949 C   0  0  0  0  0  0  0  0  0  0  0  0
   23.1950   -0.4795   -8.9749 C   0  0  0  0  0  0  0  0  0  0  0  0
   24.5688   -0.3312   -8.8271 C   0  0  0  0  0  0  0  0  0  0  0  0
   25.1532   -0.0944   -7.6280 F   0  0  0  0  0  0  0  0  0  0  0  0
   25.3319   -0.4358   -9.9691 C   0  0  0  0  0  0  0  0  0  0  0  0
   24.7667   -0.6776  -11.2121 C   0  0  0  0  0  0  0  0  0  0  0  0
   25.6817   -0.7724  -12.3801 C   0  0  2  0  0  0  0  0  0  0  0  0
   26.2236   -2.0976  -12.4631 N   0  0  0  0  0  0  0  0  0  0  0  0
   26.8161    0.1660  -12.2322 C   0  0  0  0  0  0  0  0  0  0  0  0
   27.6963    0.9126  -12.1140 N   0  0  0  0  0  0  0  0  0  0  0  0
   23.4191   -0.8175  -11.3204 C   0  0  0  0  0  0  0  0  0  0  0  0
  1  2  1  6
  2  3  2  0
  2  4  2  0
  2  5  1  6
  5  6  2  0
  6  7  1  0
  7  8  1  0
  7  9  2  0
  9 10  1  0
 10 11  1  0
 11 12  1  1
 11 13  1  0
 13 14  3  0
 10 15  2  0
 15  5  1  0
M  END
$$$$
