_rank14
     RDKit          3D

 15 15  0  0  0  0  0  0  0  0999 V2000
   28.1692   -1.7999   -7.1992 C   0  0  0  0  0  0  0  0  0  0  0  0
   27.7766   -0.1970   -7.8695 S   0  0  1  0  0  6  0  0  0  0  0  0
   26.8131    0.4546   -6.9204 O   0  0  0  0  0  0  0  0  0  0  0  0
   29.0389    0.5747   -7.9858 O   0  0  0  0  0  0  0  0  0  0  0  0
   27.0280   -0.4596   -9.4272 C   0  0  0  0  0  0  0  0  0  0  0  0
   27.5986   -1.3371  -10.3175 C   0  0  0  0  0  0  0  0  0  0  0  0
   27.0490   -1.5861  -11.5694 C   0  0  0  0  0  0  0  0  0  0  0  0
   27.6053   -2.4496  -12.4528 F   0  0  0  0  0  0  0  0  0  0  0  0
   25.8925   -0.9083  -11.8868 C   0  0  0  0  0  0  0  0  0  0  0  0
   25.2967   -0.0176  -11.0067 C   0  0  0  0  0  0  0  0  0  0  0  0
   24.0500    0.6608  -11.4494 C   0  0  2  0  0  0  0  0  0  0  0  0
   22.9611   -0.2724  -11.4362 N   0  0  0  0  0  0  0  0  0  0  0  0
   24.1920    1.1624  -12.8342 C   0  0  0  0  0  0  0  0  0  0  0  0
   24.2954    1.5445  -13.9248 N   0  0  0  0  0  0  0  0  0  0  0  0
   25.8612    0.2022   -9.7900 C   0  0  0  0  0  0  0  0  0  0  0  0
  1  2  1  6
  2  3  2  0
  2  4  2  0
  2  5  1  6
  5  6  2  0
  6  7  1  0
  7  8  1  0
  7  9  2  0
  9 10  1  0
 10 11  1  0
 11 12  1  6
 11 13  1  0
 13 14  3  0
 10 15  2  0
 15  5  1  0
M  END
$$$$
