_rank20
     RDKit          3D

 15 15  0  0  0  0  0  0  0  0999 V2000
   20.0872    2.8193  -10.2064 C   0  0  0  0  0  0  0  0  0  0  0  0
   20.5830    1.7161   -8.8989 S   0  0  1  0  0  6  0  0  0  0  0  0
   21.3109    2.5409   -7.8773 O   0  0  0  0  0  0  0  0  0  0  0  0
   19.3599    1.0951   -8.3325 O   0  0  0  0  0  0  0  0  0  0  0  0
   21.6499    0.5256   -9.6064 C   0  0  0  0  0  0  0  0  0  0  0  0
   22.9475    0.4268   -9.1653 C   0  0  0  0  0  0  0  0  0  0  0  0
   23.8408   -0.4996   -9.6898 C   0  0  0  0  0  0  0  0  0  0  0  0
   25.1216   -0.6035   -9.2605 F   0  0  0  0  0  0  0  0  0  0  0  0
   23.3667   -1.3269  -10.6840 C   0  0  0  0  0  0  0  0  0  0  0  0
   22.0619   -1.2477  -11.1469 C   0  0  0  0  0  0  0  0  0  0  0  0
   21.6530   -2.1882  -12.2233 C   0  0  2  0  0  0  0  0  0  0  0  0
   20.4635   -1.7041  -12.8618 N   0  0  0  0  0  0  0  0  0  0  0  0
   21.3477   -3.5229  -11.6624 C   0  0  0  0  0  0  0  0  0  0  0  0
   21.0946   -4.5651  -11.2199 N   0  0  0  0  0  0  0  0  0  0  0  0
   21.2148   -0.3296  -10.6115 C   0  0  0  0  0  0  0  0  0  0  0  0
  1  2  1  6
  2  3  2  0
  2  4  2  0
  2  5  1  6
  5  6  2  0
  6  7  1  0
  7  8  1  0
  7  9  2  0
  9 10  1  0
 10 11  1  0
 11 12  1  1
 11 13  1  0
 13 14  3  0
 10 15  2  0
 15  5  1  0
M  END
$$$$
