_rank15
     RDKit          3D

 15 15  0  0  0  0  0  0  0  0999 V2000
   28.4244   -1.2138  -10.7100 C   0  0  0  0  0  0  0  0  0  0  0  0
   27.5244    0.3130  -10.5325 S   0  0  1  0  0  6  0  0  0  0  0  0
   28.3090    1.1814   -9.5922 O   0  0  0  0  0  0  0  0  0  0  0  0
   27.3989    0.9319  -11.8755 O   0  0  0  0  0  0  0  0  0  0  0  0
   25.9647   -0.0849   -9.8506 C   0  0  0  0  0  0  0  0  0  0  0  0
   25.8103   -0.1320   -8.4860 C   0  0  0  0  0  0  0  0  0  0  0  0
   24.5952   -0.4424   -7.8871 C   0  0  0  0  0  0  0  0  0  0  0  0
   24.4347   -0.4909   -6.5427 F   0  0  0  0  0  0  0  0  0  0  0  0
   23.5364   -0.7047   -8.7283 C   0  0  0  0  0  0  0  0  0  0  0  0
   23.6655   -0.6639  -10.1084 C   0  0  0  0  0  0  0  0  0  0  0  0
   22.4591   -0.9636  -10.9239 C   0  0  2  0  0  0  0  0  0  0  0  0
   21.9980    0.2347  -11.5630 N   0  0  0  0  0  0  0  0  0  0  0  0
   21.3612   -1.4644  -10.0676 C   0  0  0  0  0  0  0  0  0  0  0  0
   20.5072   -1.8699   -9.3951 N   0  0  0  0  0  0  0  0  0  0  0  0
   24.8688   -0.3568  -10.6606 C   0  0  0  0  0  0  0  0  0  0  0  0
  1  2  1  6
  2  3  2  0
  2  4  2  0
  2  5  1  1
  5  6  2  0
  6  7  1  0
  7  8  1  0
  7  9  2  0
  9 10  1  0
 10 11  1  0
 11 12  1  1
 11 13  1  0
 13 14  3  0
 10 15  2  0
 15  5  1  0
M  END
$$$$
