_rank12
     RDKit          3D

 15 15  0  0  0  0  0  0  0  0999 V2000
   28.0861   -1.5932  -10.9329 C   0  0  0  0  0  0  0  0  0  0  0  0
   26.6233   -1.4768  -10.7775 C   0  0  0  0  0  0  0  0  0  0  0  0
   25.7022   -2.0357  -11.6247 C   0  0  0  0  0  0  0  0  0  0  0  0
   24.3398   -1.9138  -11.4592 C   0  0  0  0  0  0  0  0  0  0  0  0
   23.8721   -1.1880  -10.3794 C   0  0  0  0  0  0  0  0  0  0  0  0
   22.3976   -1.0221  -10.1493 C   0  0  2  0  0  0  0  0  0  0  0  0
   21.7757   -2.2410   -9.9068 O   0  0  0  0  0  0  0  0  0  0  0  0
   21.8101   -0.2737  -11.2336 C   0  0  0  0  0  0  0  0  0  0  0  0
   21.3463    0.3197  -12.1209 N   0  0  0  0  0  0  0  0  0  0  0  0
   24.7867   -0.6204   -9.5192 C   0  0  0  0  0  0  0  0  0  0  0  0
   26.1523   -0.7465   -9.6910 C   0  0  0  0  0  0  0  0  0  0  0  0
   27.2108    0.0038   -8.5567 S   0  0  1  0  0  6  0  0  0  0  0  0
   26.2533    0.8735   -7.3435 C   0  0  0  0  0  0  0  0  0  0  0  0
   28.1785   -0.9378   -7.9289 O   0  0  0  0  0  0  0  0  0  0  0  0
   28.0271    1.0385   -9.3116 O   0  0  0  0  0  0  0  0  0  0  0  0
  1  2  1  6
  2  3  2  0
  3  4  1  0
  4  5  2  0
  5  6  1  0
  6  7  1  6
  6  8  1  0
  8  9  3  0
  5 10  1  0
 10 11  2  0
 12 11  1  6
 13 12  1  1
 12 14  2  0
 12 15  2  0
 11  2  1  0
M  END
$$$$
