_rank16
     RDKit          3D

 15 15  0  0  0  0  0  0  0  0999 V2000
   24.6694    2.3961  -10.3552 C   0  0  0  0  0  0  0  0  0  0  0  0
   23.8864    1.1543  -10.5036 C   0  0  0  0  0  0  0  0  0  0  0  0
   22.5624    1.0232  -10.1742 C   0  0  0  0  0  0  0  0  0  0  0  0
   21.8511   -0.1476  -10.3219 C   0  0  0  0  0  0  0  0  0  0  0  0
   22.5061   -1.2539  -10.8303 C   0  0  0  0  0  0  0  0  0  0  0  0
   21.7811   -2.5561  -11.0129 C   0  0  2  0  0  0  0  0  0  0  0  0
   21.4641   -2.7841  -12.3467 O   0  0  0  0  0  0  0  0  0  0  0  0
   20.6455   -2.6173  -10.1254 C   0  0  0  0  0  0  0  0  0  0  0  0
   19.7244   -2.6834   -9.4171 N   0  0  0  0  0  0  0  0  0  0  0  0
   23.8374   -1.1368  -11.1657 C   0  0  0  0  0  0  0  0  0  0  0  0
   24.5452    0.0408  -11.0151 C   0  0  0  0  0  0  0  0  0  0  0  0
   26.2083    0.0804  -11.4651 S   0  0  1  0  0  6  0  0  0  0  0  0
   27.1714    0.6930  -10.1078 C   0  0  0  0  0  0  0  0  0  0  0  0
   26.7230   -1.2238  -11.9665 O   0  0  0  0  0  0  0  0  0  0  0  0
   26.3484    1.0776  -12.6021 O   0  0  0  0  0  0  0  0  0  0  0  0
  1  2  1  6
  2  3  2  0
  3  4  1  0
  4  5  2  0
  5  6  1  0
  6  7  1  6
  6  8  1  0
  8  9  3  0
  5 10  1  0
 10 11  2  0
 12 11  1  1
 13 12  1  1
 12 14  2  0
 12 15  2  0
 11  2  1  0
M  END
$$$$
