_rank20
     RDKit          3D

 15 15  0  0  0  0  0  0  0  0999 V2000
   22.7197   -0.8311  -13.2117 C   0  0  0  0  0  0  0  0  0  0  0  0
   23.5687   -0.7492  -12.0076 C   0  0  0  0  0  0  0  0  0  0  0  0
   24.8927   -0.3947  -12.0097 C   0  0  0  0  0  0  0  0  0  0  0  0
   25.6662   -0.3247  -10.8716 C   0  0  0  0  0  0  0  0  0  0  0  0
   25.0774   -0.6283   -9.6581 C   0  0  0  0  0  0  0  0  0  0  0  0
   25.8720   -0.5688   -8.3853 C   0  0  2  0  0  0  0  0  0  0  0  0
   25.5176    0.5288   -7.6101 O   0  0  0  0  0  0  0  0  0  0  0  0
   27.2821   -0.6431   -8.6801 C   0  0  0  0  0  0  0  0  0  0  0  0
   28.4158   -0.7124   -8.9340 N   0  0  0  0  0  0  0  0  0  0  0  0
   23.7469   -0.9864   -9.6409 C   0  0  0  0  0  0  0  0  0  0  0  0
   22.9766   -1.0546  -10.7863 C   0  0  0  0  0  0  0  0  0  0  0  0
   21.3208   -1.5141  -10.6545 S   0  0  1  0  0  6  0  0  0  0  0  0
   20.9193   -1.7873   -8.9489 C   0  0  0  0  0  0  0  0  0  0  0  0
   20.3813   -0.5551  -11.2988 O   0  0  0  0  0  0  0  0  0  0  0  0
   21.1586   -2.8423  -11.3731 O   0  0  0  0  0  0  0  0  0  0  0  0
  1  2  1  6
  2  3  2  0
  3  4  1  0
  4  5  2  0
  5  6  1  0
  6  7  1  6
  6  8  1  0
  8  9  3  0
  5 10  1  0
 10 11  2  0
 12 11  1  1
 13 12  1  1
 12 14  2  0
 12 15  2  0
 11  2  1  0
M  END
$$$$
