_rank3
     RDKit          3D

 15 15  0  0  0  0  0  0  0  0999 V2000
   27.3809    0.2050  -11.8938 C   0  0  0  0  0  0  0  0  0  0  0  0
   26.0171   -0.1460  -11.4532 C   0  0  0  0  0  0  0  0  0  0  0  0
   24.9177   -0.1788  -12.2709 C   0  0  0  0  0  0  0  0  0  0  0  0
   23.6527   -0.5101  -11.8367 C   0  0  0  0  0  0  0  0  0  0  0  0
   23.4789   -0.8277  -10.5024 C   0  0  0  0  0  0  0  0  0  0  0  0
   22.1228   -1.1965   -9.9734 C   0  0  2  0  0  0  0  0  0  0  0  0
   21.6094   -2.3175  -10.6146 O   0  0  0  0  0  0  0  0  0  0  0  0
   21.2485   -0.0499  -10.0149 C   0  0  0  0  0  0  0  0  0  0  0  0
   20.5345    0.8679  -10.0639 N   0  0  0  0  0  0  0  0  0  0  0  0
   24.5754   -0.7988   -9.6685 C   0  0  0  0  0  0  0  0  0  0  0  0
   25.8419   -0.4656  -10.1105 C   0  0  0  0  0  0  0  0  0  0  0  0
   27.1462   -0.4594   -8.9842 S   0  0  1  0  0  6  0  0  0  0  0  0
   27.0071    0.9596   -7.9296 C   0  0  0  0  0  0  0  0  0  0  0  0
   27.2673   -1.7214   -8.2030 O   0  0  0  0  0  0  0  0  0  0  0  0
   28.4320   -0.3056   -9.7778 O   0  0  0  0  0  0  0  0  0  0  0  0
  1  2  1  6
  2  3  2  0
  3  4  1  0
  4  5  2  0
  5  6  1  0
  6  7  1  6
  6  8  1  0
  8  9  3  0
  5 10  1  0
 10 11  2  0
 12 11  1  6
 13 12  1  1
 12 14  2  0
 12 15  2  0
 11  2  1  0
M  END
$$$$
