_rank2
     RDKit          3D

 15 15  0  0  0  0  0  0  0  0999 V2000
   27.2504   -0.0592  -11.8068 C   0  0  0  0  0  0  0  0  0  0  0  0
   25.8602   -0.2978  -11.3736 C   0  0  0  0  0  0  0  0  0  0  0  0
   24.7922   -0.4367  -12.2214 C   0  0  0  0  0  0  0  0  0  0  0  0
   23.5016   -0.6595  -11.7935 C   0  0  0  0  0  0  0  0  0  0  0  0
   23.2669   -0.7484  -10.4340 C   0  0  0  0  0  0  0  0  0  0  0  0
   21.8804   -0.9902   -9.9105 C   0  0  2  0  0  0  0  0  0  0  0  0
   21.4890   -2.3121  -10.0860 O   0  0  0  0  0  0  0  0  0  0  0  0
   20.9645   -0.0310  -10.4778 C   0  0  0  0  0  0  0  0  0  0  0  0
   20.2158    0.7285  -10.9436 N   0  0  0  0  0  0  0  0  0  0  0  0
   24.3312   -0.6107   -9.5697 C   0  0  0  0  0  0  0  0  0  0  0  0
   25.6236   -0.3873  -10.0056 C   0  0  0  0  0  0  0  0  0  0  0  0
   26.8836   -0.2290   -8.8405 S   0  0  1  0  0  6  0  0  0  0  0  0
   27.6687    1.3495   -9.0326 C   0  0  0  0  0  0  0  0  0  0  0  0
   26.4343   -0.4583   -7.4395 O   0  0  0  0  0  0  0  0  0  0  0  0
   27.9254   -1.2900   -9.1500 O   0  0  0  0  0  0  0  0  0  0  0  0
  1  2  1  6
  2  3  2  0
  3  4  1  0
  4  5  2  0
  5  6  1  0
  6  7  1  6
  6  8  1  0
  8  9  3  0
  5 10  1  0
 10 11  2  0
 12 11  1  6
 13 12  1  1
 12 14  2  0
 12 15  2  0
 11  2  1  0
M  END
$$$$
