_rank6
     RDKit          3D

 22 24  0  0  0  0  0  0  0  0999 V2000
   27.3933   -0.6190  -12.3654 O   0  0  0  0  0  0  0  0  0  0  0  0
   26.3024   -0.0847  -12.0213 N   0  0  0  0  0  4  0  0  0  0  0  0
   25.5706    0.5287  -13.0042 O   0  0  0  0  0  1  0  0  0  0  0  0
   25.9261   -0.1589  -10.6718 C   0  0  0  0  0  0  0  0  0  0  0  0
   24.6006   -0.3567  -10.3496 C   0  0  0  0  0  0  0  0  0  0  0  0
   23.6611   -0.4767  -11.3927 N   0  0  0  0  0  0  0  0  0  0  0  0
   22.3779    0.1701  -11.2751 C   0  0  0  0  0  0  0  0  0  0  0  0
   21.2584   -0.8030  -11.2338 C   0  0  0  0  0  0  0  0  0  0  0  0
   21.2313   -1.9435  -12.0096 C   0  0  0  0  0  0  0  0  0  0  0  0
   20.1656   -2.8230  -11.9393 C   0  0  0  0  0  0  0  0  0  0  0  0
   19.1178   -2.5407  -11.0728 C   0  0  0  0  0  0  0  0  0  0  0  0
   18.0482   -3.3684  -10.9649 F   0  0  0  0  0  0  0  0  0  0  0  0
   19.1546   -1.4018  -10.3043 C   0  0  0  0  0  0  0  0  0  0  0  0
   20.2176   -0.5203  -10.3712 C   0  0  0  0  0  0  0  0  0  0  0  0
   20.2157    0.9275   -9.3624 Cl  0  0  0  0  0  0  0  0  0  0  0  0
   24.2275   -0.4310   -9.0102 C   0  0  0  0  0  0  0  0  0  0  0  0
   25.1708   -0.3088   -8.0160 C   0  0  0  0  0  0  0  0  0  0  0  0
   26.5085   -0.1093   -8.3222 C   0  0  0  0  0  0  0  0  0  0  0  0
   27.6367    0.0442   -7.5991 N   0  0  0  0  0  0  0  0  0  0  0  0
   28.6192    0.1999   -8.4310 O   0  0  0  0  0  0  0  0  0  0  0  0
   28.1806    0.1543   -9.6635 N   0  0  0  0  0  0  0  0  0  0  0  0
   26.8482   -0.0398   -9.6576 C   0  0  0  0  0  0  0  0  0  0  0  0
  1  2  2  0
  2  3  1  0
  2  4  1  0
  4  5  2  0
  5  6  1  0
  7  6  1  1
  7  8  1  0
  8  9  2  0
  9 10  1  0
 10 11  2  0
 11 12  1  0
 11 13  1  0
 13 14  2  0
 14 15  1  0
  5 16  1  0
 16 17  2  0
 17 18  1  0
 18 19  2  0
 19 20  1  0
 20 21  1  0
 21 22  2  0
 22  4  1  0
 14  8  1  0
 22 18  1  0
M  CHG  2   2   1   3  -1
M  END
$$$$
