_rank2
     RDKit          3D

 22 24  0  0  0  0  0  0  0  0999 V2000
   27.4841    0.6398  -12.2762 O   0  0  0  0  0  0  0  0  0  0  0  0
   26.2993    0.2425  -12.0957 N   0  0  0  0  0  4  0  0  0  0  0  0
   25.5273    0.0545  -13.2122 O   0  0  0  0  0  1  0  0  0  0  0  0
   25.8676    0.0259  -10.7785 C   0  0  0  0  0  0  0  0  0  0  0  0
   24.5964   -0.4576  -10.5548 C   0  0  0  0  0  0  0  0  0  0  0  0
   23.7665   -0.7181  -11.6632 N   0  0  0  0  0  0  0  0  0  0  0  0
   22.5365   -1.4470  -11.4780 C   0  0  0  0  0  0  0  0  0  0  0  0
   21.4569   -0.5970  -10.9179 C   0  0  0  0  0  0  0  0  0  0  0  0
   21.6793    0.6826  -10.4527 C   0  0  0  0  0  0  0  0  0  0  0  0
   20.6421    1.4394   -9.9372 C   0  0  0  0  0  0  0  0  0  0  0  0
   19.3672    0.8906   -9.8940 C   0  0  0  0  0  0  0  0  0  0  0  0
   18.3145    1.5884   -9.3983 F   0  0  0  0  0  0  0  0  0  0  0  0
   19.1563   -0.3851  -10.3601 C   0  0  0  0  0  0  0  0  0  0  0  0
   20.1897   -1.1447  -10.8761 C   0  0  0  0  0  0  0  0  0  0  0  0
   19.8649   -2.7773  -11.4617 Cl  0  0  0  0  0  0  0  0  0  0  0  0
   24.1683   -0.6731   -9.2475 C   0  0  0  0  0  0  0  0  0  0  0  0
   25.0044   -0.4072   -8.1875 C   0  0  0  0  0  0  0  0  0  0  0  0
   26.2862    0.0797   -8.3944 C   0  0  0  0  0  0  0  0  0  0  0  0
   27.3122    0.4277   -7.5910 N   0  0  0  0  0  0  0  0  0  0  0  0
   28.2878    0.8240   -8.3478 O   0  0  0  0  0  0  0  0  0  0  0  0
   27.9424    0.7492   -9.6083 N   0  0  0  0  0  0  0  0  0  0  0  0
   26.6824    0.2834   -9.7002 C   0  0  0  0  0  0  0  0  0  0  0  0
  1  2  2  0
  2  3  1  0
  2  4  1  0
  4  5  2  0
  5  6  1  0
  7  6  1  1
  7  8  1  0
  8  9  2  0
  9 10  1  0
 10 11  2  0
 11 12  1  0
 11 13  1  0
 13 14  2  0
 14 15  1  0
  5 16  1  0
 16 17  2  0
 17 18  1  0
 18 19  2  0
 19 20  1  0
 20 21  1  0
 21 22  2  0
 22  4  1  0
 14  8  1  0
 22 18  1  0
M  CHG  2   2   1   3  -1
M  END
$$$$
