_rank19
     RDKit          3D

 22 24  0  0  0  0  0  0  0  0999 V2000
   27.6103    0.5983  -12.0990 O   0  0  0  0  0  0  0  0  0  0  0  0
   26.3659    0.7485  -11.9477 N   0  0  0  0  0  4  0  0  0  0  0  0
   25.7102    1.5045  -12.8839 O   0  0  0  0  0  1  0  0  0  0  0  0
   25.7551    0.1359  -10.8432 C   0  0  0  0  0  0  0  0  0  0  0  0
   24.4411   -0.2698  -10.9363 C   0  0  0  0  0  0  0  0  0  0  0  0
   23.7498   -0.0529  -12.1446 N   0  0  0  0  0  0  0  0  0  0  0  0
   22.6529   -0.9168  -12.5041 C   0  0  0  0  0  0  0  0  0  0  0  0
   21.6270   -0.9989  -11.4353 C   0  0  0  0  0  0  0  0  0  0  0  0
   21.2474   -2.1914  -10.8545 C   0  0  0  0  0  0  0  0  0  0  0  0
   20.2849   -2.2210   -9.8610 C   0  0  0  0  0  0  0  0  0  0  0  0
   19.7027   -1.0276   -9.4543 C   0  0  0  0  0  0  0  0  0  0  0  0
   18.7538   -0.9994   -8.4849 F   0  0  0  0  0  0  0  0  0  0  0  0
   20.0879    0.1549  -10.0393 C   0  0  0  0  0  0  0  0  0  0  0  0
   21.0494    0.1891  -11.0321 C   0  0  0  0  0  0  0  0  0  0  0  0
   21.5082    1.7343  -11.7501 Cl  0  0  0  0  0  0  0  0  0  0  0  0
   23.8354   -0.8784   -9.8403 C   0  0  0  0  0  0  0  0  0  0  0  0
   24.5395   -1.0743   -8.6743 C   0  0  0  0  0  0  0  0  0  0  0  0
   25.8619   -0.6722   -8.5633 C   0  0  0  0  0  0  0  0  0  0  0  0
   26.7919   -0.7216   -7.5877 N   0  0  0  0  0  0  0  0  0  0  0  0
   27.8779   -0.1859   -8.0516 O   0  0  0  0  0  0  0  0  0  0  0  0
   27.6961    0.2100   -9.2860 N   0  0  0  0  0  0  0  0  0  0  0  0
   26.4353   -0.0721   -9.6654 C   0  0  0  0  0  0  0  0  0  0  0  0
  1  2  2  0
  2  3  1  0
  2  4  1  0
  4  5  2  0
  5  6  1  0
  7  6  1  1
  7  8  1  0
  8  9  2  0
  9 10  1  0
 10 11  2  0
 11 12  1  0
 11 13  1  0
 13 14  2  0
 14 15  1  0
  5 16  1  0
 16 17  2  0
 17 18  1  0
 18 19  2  0
 19 20  1  0
 20 21  1  0
 21 22  2  0
 22  4  1  0
 14  8  1  0
 22 18  1  0
M  CHG  2   2   1   3  -1
M  END
$$$$
