_rank5
     RDKit          3D

 22 24  0  0  0  0  0  0  0  0999 V2000
   27.6105    0.3444  -12.5086 O   0  0  0  0  0  0  0  0  0  0  0  0
   26.3678    0.3885  -12.2897 N   0  0  0  0  0  4  0  0  0  0  0  0
   25.5635    0.7658  -13.3332 O   0  0  0  0  0  1  0  0  0  0  0  0
   25.9095    0.0512  -11.0074 C   0  0  0  0  0  0  0  0  0  0  0  0
   24.6131   -0.3884  -10.8469 C   0  0  0  0  0  0  0  0  0  0  0  0
   23.7850   -0.4833  -11.9829 N   0  0  0  0  0  0  0  0  0  0  0  0
   22.5175   -1.1635  -11.8871 C   0  0  0  0  0  0  0  0  0  0  0  0
   21.4926   -0.3490  -11.1886 C   0  0  0  0  0  0  0  0  0  0  0  0
   21.5179    1.0303  -11.1735 C   0  0  0  0  0  0  0  0  0  0  0  0
   20.5413    1.7497  -10.5078 C   0  0  0  0  0  0  0  0  0  0  0  0
   19.5299    1.0608   -9.8513 C   0  0  0  0  0  0  0  0  0  0  0  0
   18.5479    1.7163   -9.1828 F   0  0  0  0  0  0  0  0  0  0  0  0
   19.5139   -0.3134   -9.8724 C   0  0  0  0  0  0  0  0  0  0  0  0
   20.4875   -1.0361  -10.5365 C   0  0  0  0  0  0  0  0  0  0  0  0
   20.4203   -2.7994  -10.5331 Cl  0  0  0  0  0  0  0  0  0  0  0  0
   24.1587   -0.7239   -9.5743 C   0  0  0  0  0  0  0  0  0  0  0  0
   24.9938   -0.6186   -8.4857 C   0  0  0  0  0  0  0  0  0  0  0  0
   26.3008   -0.1780   -8.6290 C   0  0  0  0  0  0  0  0  0  0  0  0
   27.3328    0.0272   -7.7852 N   0  0  0  0  0  0  0  0  0  0  0  0
   28.3363    0.4539   -8.4872 O   0  0  0  0  0  0  0  0  0  0  0  0
   28.0032    0.5353   -9.7505 N   0  0  0  0  0  0  0  0  0  0  0  0
   26.7228    0.1472   -9.9017 C   0  0  0  0  0  0  0  0  0  0  0  0
  1  2  2  0
  2  3  1  0
  2  4  1  0
  4  5  2  0
  5  6  1  0
  7  6  1  1
  7  8  1  0
  8  9  2  0
  9 10  1  0
 10 11  2  0
 11 12  1  0
 11 13  1  0
 13 14  2  0
 14 15  1  0
  5 16  1  0
 16 17  2  0
 17 18  1  0
 18 19  2  0
 19 20  1  0
 20 21  1  0
 21 22  2  0
 22  4  1  0
 14  8  1  0
 22 18  1  0
M  CHG  2   2   1   3  -1
M  END
$$$$
