_rank8
     RDKit          3D

 22 24  0  0  0  0  0  0  0  0999 V2000
   25.6107   -0.3990  -12.9794 O   0  0  0  0  0  0  0  0  0  0  0  0
   26.1177    0.3816  -12.1264 N   0  0  0  0  0  4  0  0  0  0  0  0
   26.9440    1.3685  -12.5970 O   0  0  0  0  0  1  0  0  0  0  0  0
   25.7999    0.1811  -10.7747 C   0  0  0  0  0  0  0  0  0  0  0  0
   24.4769    0.1040  -10.3957 C   0  0  0  0  0  0  0  0  0  0  0  0
   23.4811    0.2319  -11.3842 N   0  0  0  0  0  0  0  0  0  0  0  0
   22.1795    0.7371  -11.0247 C   0  0  0  0  0  0  0  0  0  0  0  0
   21.1521   -0.3326  -10.9824 C   0  0  0  0  0  0  0  0  0  0  0  0
   21.4094   -1.6310  -11.3713 C   0  0  0  0  0  0  0  0  0  0  0  0
   20.4200   -2.5965  -11.3162 C   0  0  0  0  0  0  0  0  0  0  0  0
   19.1573   -2.2390  -10.8619 C   0  0  0  0  0  0  0  0  0  0  0  0
   18.1506   -3.1456  -10.7882 F   0  0  0  0  0  0  0  0  0  0  0  0
   18.9114   -0.9428  -10.4769 C   0  0  0  0  0  0  0  0  0  0  0  0
   19.8971    0.0251  -10.5301 C   0  0  0  0  0  0  0  0  0  0  0  0
   19.5289    1.6748  -10.0235 Cl  0  0  0  0  0  0  0  0  0  0  0  0
   24.1617   -0.0957   -9.0543 C   0  0  0  0  0  0  0  0  0  0  0  0
   25.1593   -0.2156   -8.1142 C   0  0  0  0  0  0  0  0  0  0  0  0
   26.4953   -0.1404   -8.4779 C   0  0  0  0  0  0  0  0  0  0  0  0
   27.6670   -0.2169   -7.8143 N   0  0  0  0  0  0  0  0  0  0  0  0
   28.6206   -0.0751   -8.6817 O   0  0  0  0  0  0  0  0  0  0  0  0
   28.1215    0.0903   -9.8805 N   0  0  0  0  0  0  0  0  0  0  0  0
   26.7770    0.0581   -9.8139 C   0  0  0  0  0  0  0  0  0  0  0  0
  1  2  2  0
  2  3  1  0
  2  4  1  0
  4  5  2  0
  5  6  1  0
  7  6  1  1
  7  8  1  0
  8  9  2  0
  9 10  1  0
 10 11  2  0
 11 12  1  0
 11 13  1  0
 13 14  2  0
 14 15  1  0
  5 16  1  0
 16 17  2  0
 17 18  1  0
 18 19  2  0
 19 20  1  0
 20 21  1  0
 21 22  2  0
 22  4  1  0
 14  8  1  0
 22 18  1  0
M  CHG  2   2   1   3  -1
M  END
$$$$
