_rank17
     RDKit          3D

 20 21  0  0  0  0  0  0  0  0999 V2000
   26.1713    0.5998   -7.4960 C   0  0  0  0  0  0  0  0  0  0  0  0
   26.5665    0.6997   -9.2076 S   0  0  2  0  0  6  0  0  0  0  0  0
   27.9917    1.2583   -9.2762 O   0  0  0  0  0  0  0  0  0  0  0  0
   25.7440    1.7190   -9.9459 O   0  0  0  0  0  0  0  0  0  0  0  0
   26.5792   -0.8386  -10.0111 C   0  0  0  0  0  0  0  0  0  0  0  0
   27.8000   -1.4110  -10.4212 C   0  0  0  0  0  0  0  0  0  0  0  0
   27.7643   -2.6464  -11.0236 C   0  0  0  0  0  0  0  0  0  0  0  0
   26.5905   -3.3369  -11.2382 C   0  0  0  0  0  0  0  0  0  0  0  0
   25.4556   -2.7519  -10.8319 N   0  0  0  0  0  0  0  0  0  0  0  0
   25.4284   -1.5227  -10.2265 C   0  0  0  0  0  0  0  0  0  0  0  0
   24.1497   -0.9490   -9.8513 C   0  0  0  0  0  0  0  0  0  0  0  0
   23.7455   -0.6893   -8.7173 O   0  0  0  0  0  0  0  0  0  0  0  0
   23.2293   -0.6367  -10.8836 O   0  0  0  0  0  0  0  0  0  0  0  0
   21.9632   -0.2294  -10.5748 C   0  0  0  0  0  0  0  0  0  0  0  0
   21.7355    0.8031   -9.6992 C   0  0  0  0  0  0  0  0  0  0  0  0
   20.4213    1.2019   -9.3993 C   0  0  0  0  0  0  0  0  0  0  0  0
   19.3665    0.5539   -9.9861 C   0  0  0  0  0  0  0  0  0  0  0  0
   19.5798   -0.4804  -10.8637 C   0  0  0  0  0  0  0  0  0  0  0  0
   18.5026   -1.0845  -11.4138 F   0  0  0  0  0  0  0  0  0  0  0  0
   20.8820   -0.8558  -11.1440 C   0  0  0  0  0  0  0  0  0  0  0  0
  1  2  1  6
  2  3  2  0
  2  4  2  0
  2  5  1  6
  5  6  2  0
  6  7  1  0
  7  8  2  0
  8  9  1  0
  9 10  2  0
 10 11  1  0
 11 12  2  0
 11 13  1  0
 13 14  1  0
 14 15  2  0
 15 16  1  0
 16 17  2  0
 17 18  1  0
 18 19  1  0
 18 20  2  0
 10  5  1  0
 20 14  1  0
M  END
$$$$
