_rank1
     RDKit          3D

 20 21  0  0  0  0  0  0  0  0999 V2000
   27.7123    0.5578  -13.2905 C   0  0  0  0  0  0  0  0  0  0  0  0
   26.2766    0.8037  -12.3036 S   0  0  2  0  0  6  0  0  0  0  0  0
   25.1497    0.0390  -13.0062 O   0  0  0  0  0  0  0  0  0  0  0  0
   25.7978    2.2290  -12.3009 O   0  0  0  0  0  0  0  0  0  0  0  0
   26.4138    0.1555  -10.6995 C   0  0  0  0  0  0  0  0  0  0  0  0
   27.6785    0.0484  -10.0869 C   0  0  0  0  0  0  0  0  0  0  0  0
   27.7353   -0.4394   -8.8027 C   0  0  0  0  0  0  0  0  0  0  0  0
   26.6120   -0.8230   -8.1012 C   0  0  0  0  0  0  0  0  0  0  0  0
   25.4325   -0.7034   -8.7255 N   0  0  0  0  0  0  0  0  0  0  0  0
   25.3135   -0.2247  -10.0042 C   0  0  0  0  0  0  0  0  0  0  0  0
   23.9990   -0.1633  -10.6151 C   0  0  0  0  0  0  0  0  0  0  0  0
   23.5616    0.7032  -11.3731 O   0  0  0  0  0  0  0  0  0  0  0  0
   23.0809   -1.2055  -10.3302 O   0  0  0  0  0  0  0  0  0  0  0  0
   21.7429   -1.0138  -10.5228 C   0  0  0  0  0  0  0  0  0  0  0  0
   20.9397   -2.0102  -11.0195 C   0  0  0  0  0  0  0  0  0  0  0  0
   19.5650   -1.7854  -11.2078 C   0  0  0  0  0  0  0  0  0  0  0  0
   19.0291   -0.5646  -10.8926 C   0  0  0  0  0  0  0  0  0  0  0  0
   19.8207    0.4410  -10.3951 C   0  0  0  0  0  0  0  0  0  0  0  0
   19.2397    1.6258  -10.1010 F   0  0  0  0  0  0  0  0  0  0  0  0
   21.1714    0.1970  -10.2180 C   0  0  0  0  0  0  0  0  0  0  0  0
  1  2  1  6
  2  3  2  0
  2  4  2  0
  2  5  1  1
  5  6  2  0
  6  7  1  0
  7  8  2  0
  8  9  1  0
  9 10  2  0
 10 11  1  0
 11 12  2  0
 11 13  1  0
 13 14  1  0
 14 15  2  0
 15 16  1  0
 16 17  2  0
 17 18  1  0
 18 19  1  0
 18 20  2  0
 10  5  1  0
 20 14  1  0
M  END
$$$$
