_rank9
     RDKit          3D

 20 21  0  0  0  0  0  0  0  0999 V2000
   27.7775    1.4461  -12.8909 C   0  0  0  0  0  0  0  0  0  0  0  0
   26.6483    0.2376  -12.2908 S   0  0  2  0  0  6  0  0  0  0  0  0
   27.2074   -1.1168  -12.7392 O   0  0  0  0  0  0  0  0  0  0  0  0
   25.3000    0.3079  -12.9524 O   0  0  0  0  0  0  0  0  0  0  0  0
   26.5274    0.1950  -10.5600 C   0  0  0  0  0  0  0  0  0  0  0  0
   27.6855    0.3268   -9.7677 C   0  0  0  0  0  0  0  0  0  0  0  0
   27.5375    0.3210   -8.4009 C   0  0  0  0  0  0  0  0  0  0  0  0
   26.3107    0.1925   -7.7850 C   0  0  0  0  0  0  0  0  0  0  0  0
   25.2390    0.0694   -8.5798 N   0  0  0  0  0  0  0  0  0  0  0  0
   25.3243    0.0677   -9.9476 C   0  0  0  0  0  0  0  0  0  0  0  0
   24.1150   -0.1069  -10.7298 C   0  0  0  0  0  0  0  0  0  0  0  0
   23.8270    0.4307  -11.7997 O   0  0  0  0  0  0  0  0  0  0  0  0
   23.1235   -0.9930  -10.2376 O   0  0  0  0  0  0  0  0  0  0  0  0
   21.8223   -0.8520  -10.6265 C   0  0  0  0  0  0  0  0  0  0  0  0
   21.3335   -1.4887  -11.7401 C   0  0  0  0  0  0  0  0  0  0  0  0
   19.9893   -1.3259  -12.1176 C   0  0  0  0  0  0  0  0  0  0  0  0
   19.1674   -0.5270  -11.3672 C   0  0  0  0  0  0  0  0  0  0  0  0
   19.6430    0.1159  -10.2510 C   0  0  0  0  0  0  0  0  0  0  0  0
   18.7883    0.8920   -9.5474 F   0  0  0  0  0  0  0  0  0  0  0  0
   20.9698   -0.0592   -9.8985 C   0  0  0  0  0  0  0  0  0  0  0  0
  1  2  1  6
  2  3  2  0
  2  4  2  0
  2  5  1  1
  5  6  2  0
  6  7  1  0
  7  8  2  0
  8  9  1  0
  9 10  2  0
 10 11  1  0
 11 12  2  0
 11 13  1  0
 13 14  1  0
 14 15  2  0
 15 16  1  0
 16 17  2  0
 17 18  1  0
 18 19  1  0
 18 20  2  0
 10  5  1  0
 20 14  1  0
M  END
$$$$
