_rank3
     RDKit          3D

 20 21  0  0  0  0  0  0  0  0999 V2000
   25.8101    1.6751  -12.8737 C   0  0  0  0  0  0  0  0  0  0  0  0
   26.6407    0.2704  -12.2160 S   0  0  2  0  0  6  0  0  0  0  0  0
   28.1195    0.4530  -12.5738 O   0  0  0  0  0  0  0  0  0  0  0  0
   26.2609   -1.0144  -12.8983 O   0  0  0  0  0  0  0  0  0  0  0  0
   26.5425    0.1483  -10.4876 C   0  0  0  0  0  0  0  0  0  0  0  0
   27.7132    0.2235   -9.7066 C   0  0  0  0  0  0  0  0  0  0  0  0
   27.5836    0.1559   -8.3395 C   0  0  0  0  0  0  0  0  0  0  0  0
   26.3632    0.0187   -7.7129 C   0  0  0  0  0  0  0  0  0  0  0  0
   25.2789   -0.0492   -8.4972 N   0  0  0  0  0  0  0  0  0  0  0  0
   25.3457    0.0122   -9.8647 C   0  0  0  0  0  0  0  0  0  0  0  0
   24.1231   -0.1055  -10.6369 C   0  0  0  0  0  0  0  0  0  0  0  0
   23.8175    0.5084  -11.6598 O   0  0  0  0  0  0  0  0  0  0  0  0
   23.1393   -1.0253  -10.1937 O   0  0  0  0  0  0  0  0  0  0  0  0
   21.8194   -0.8011  -10.4611 C   0  0  0  0  0  0  0  0  0  0  0  0
   21.2224    0.4002  -10.1695 C   0  0  0  0  0  0  0  0  0  0  0  0
   19.8613    0.6038  -10.4556 C   0  0  0  0  0  0  0  0  0  0  0  0
   19.1316   -0.4044  -11.0282 C   0  0  0  0  0  0  0  0  0  0  0  0
   19.7158   -1.6110  -11.3252 C   0  0  0  0  0  0  0  0  0  0  0  0
   18.9490   -2.5708  -11.8896 F   0  0  0  0  0  0  0  0  0  0  0  0
   21.0572   -1.7888  -11.0347 C   0  0  0  0  0  0  0  0  0  0  0  0
  1  2  1  6
  2  3  2  0
  2  4  2  0
  2  5  1  1
  5  6  2  0
  6  7  1  0
  7  8  2  0
  8  9  1  0
  9 10  2  0
 10 11  1  0
 11 12  2  0
 11 13  1  0
 13 14  1  0
 14 15  2  0
 15 16  1  0
 16 17  2  0
 17 18  1  0
 18 19  1  0
 18 20  2  0
 10  5  1  0
 20 14  1  0
M  END
$$$$
