_rank1
     RDKit          3D

 18 19  0  0  0  0  0  0  0  0999 V2000
   25.9915    0.1670  -13.7174 N   0  0  0  0  0  0  0  0  0  0  0  0
   25.8897    0.0051  -12.5839 C   0  0  0  0  0  0  0  0  0  0  0  0
   25.7473   -0.1779  -11.1726 C   0  0  0  0  0  0  0  0  0  0  0  0
   26.8851   -0.2089  -10.4004 C   0  0  0  0  0  0  0  0  0  0  0  0
   26.7579   -0.3847   -9.0406 C   0  0  0  0  0  0  0  0  0  0  0  0
   27.9681   -0.4211   -8.1907 C   0  0  0  0  0  0  0  0  0  0  0  0
   27.8593    0.4744   -7.1249 O   0  0  0  0  0  0  0  0  0  0  0  0
   25.5049   -0.5255   -8.4800 C   0  0  0  0  0  0  0  0  0  0  0  0
   24.3748   -0.4888   -9.2955 C   0  0  0  0  0  0  0  0  0  0  0  0
   24.4804   -0.3139  -10.6576 C   0  0  0  0  0  0  0  0  0  0  0  0
   23.3249   -0.2851  -11.4206 O   0  0  0  0  0  0  0  0  0  0  0  0
   22.0900   -0.6567  -10.9781 C   0  0  0  0  0  0  0  0  0  0  0  0
   21.6745   -1.9675  -10.9757 C   0  0  0  0  0  0  0  0  0  0  0  0
   20.4286   -2.3100  -10.5253 N   0  0  0  0  0  0  0  0  0  0  0  0
   19.5568   -1.3960  -10.0675 C   0  0  0  0  0  0  0  0  0  0  0  0
   19.9393   -0.0741  -10.0554 C   0  0  0  0  0  0  0  0  0  0  0  0
   19.0995    0.9115   -9.6015 F   0  0  0  0  0  0  0  0  0  0  0  0
   21.2050    0.2859  -10.5115 C   0  0  0  0  0  0  0  0  0  0  0  0
  1  2  3  0
  2  3  1  0
  3  4  2  0
  4  5  1  0
  5  6  1  0
  6  7  1  1
  5  8  2  0
  8  9  1  0
  9 10  2  0
 10 11  1  0
 11 12  1  0
 12 13  2  0
 13 14  1  0
 14 15  2  0
 15 16  1  0
 16 17  1  0
 16 18  2  0
 10  3  1  0
 18 12  1  0
M  END
$$$$
