_rank13
     RDKit          3D

 18 19  0  0  0  0  0  0  0  0999 V2000
   23.0359   -2.5432   -8.6952 N   0  0  0  0  0  0  0  0  0  0  0  0
   23.6457   -1.9309   -9.4532 C   0  0  0  0  0  0  0  0  0  0  0  0
   24.4158   -1.1894  -10.4034 C   0  0  0  0  0  0  0  0  0  0  0  0
   25.7417   -0.9515  -10.1256 C   0  0  0  0  0  0  0  0  0  0  0  0
   26.4911   -0.2383  -11.0345 C   0  0  0  0  0  0  0  0  0  0  0  0
   27.9191    0.0293  -10.7564 C   0  0  0  0  0  0  0  0  0  0  0  0
   28.1238    0.3005   -9.4020 O   0  0  0  0  0  0  0  0  0  0  0  0
   25.9067    0.2214  -12.1969 C   0  0  0  0  0  0  0  0  0  0  0  0
   24.5596   -0.0397  -12.4433 C   0  0  0  0  0  0  0  0  0  0  0  0
   23.7927   -0.7510  -11.5472 C   0  0  0  0  0  0  0  0  0  0  0  0
   22.4594   -0.9818  -11.8423 O   0  0  0  0  0  0  0  0  0  0  0  0
   21.4078   -0.3825  -11.2147 C   0  0  0  0  0  0  0  0  0  0  0  0
   21.5751    0.6639  -10.3384 C   0  0  0  0  0  0  0  0  0  0  0  0
   20.4999    1.2455   -9.7233 N   0  0  0  0  0  0  0  0  0  0  0  0
   19.2406    0.8305   -9.9400 C   0  0  0  0  0  0  0  0  0  0  0  0
   19.0360   -0.2149  -10.8113 C   0  0  0  0  0  0  0  0  0  0  0  0
   17.7768   -0.6895  -11.0791 F   0  0  0  0  0  0  0  0  0  0  0  0
   20.1229   -0.8143  -11.4429 C   0  0  0  0  0  0  0  0  0  0  0  0
  1  2  3  0
  2  3  1  0
  3  4  2  0
  4  5  1  0
  5  6  1  0
  6  7  1  1
  5  8  2  0
  8  9  1  0
  9 10  2  0
 10 11  1  0
 11 12  1  0
 12 13  2  0
 13 14  1  0
 14 15  2  0
 15 16  1  0
 16 17  1  0
 16 18  2  0
 10  3  1  0
 18 12  1  0
M  END
$$$$
