_rank7
     RDKit          3D

 18 19  0  0  0  0  0  0  0  0999 V2000
   25.2558    0.5699  -13.7361 N   0  0  0  0  0  0  0  0  0  0  0  0
   25.2746    0.3309  -12.6118 C   0  0  0  0  0  0  0  0  0  0  0  0
   25.3029    0.0104  -11.2182 C   0  0  0  0  0  0  0  0  0  0  0  0
   26.3780    0.4348  -10.4726 C   0  0  0  0  0  0  0  0  0  0  0  0
   26.4140    0.1310   -9.1300 C   0  0  0  0  0  0  0  0  0  0  0  0
   27.5605    0.5773   -8.3088 C   0  0  0  0  0  0  0  0  0  0  0  0
   28.0487   -0.4664   -7.5201 O   0  0  0  0  0  0  0  0  0  0  0  0
   25.3823   -0.5866   -8.5598 C   0  0  0  0  0  0  0  0  0  0  0  0
   24.3093   -0.9994   -9.3483 C   0  0  0  0  0  0  0  0  0  0  0  0
   24.2543   -0.7058  -10.6928 C   0  0  0  0  0  0  0  0  0  0  0  0
   23.1647   -1.1406  -11.4290 O   0  0  0  0  0  0  0  0  0  0  0  0
   21.8612   -0.9387  -11.0843 C   0  0  0  0  0  0  0  0  0  0  0  0
   20.8997   -1.9080  -11.2480 C   0  0  0  0  0  0  0  0  0  0  0  0
   19.5989   -1.6760  -10.8925 N   0  0  0  0  0  0  0  0  0  0  0  0
   19.1973   -0.5045  -10.3717 C   0  0  0  0  0  0  0  0  0  0  0  0
   20.1332    0.4886  -10.1938 C   0  0  0  0  0  0  0  0  0  0  0  0
   19.7928    1.7091   -9.6672 F   0  0  0  0  0  0  0  0  0  0  0  0
   21.4601    0.2635  -10.5520 C   0  0  0  0  0  0  0  0  0  0  0  0
  1  2  3  0
  2  3  1  0
  3  4  2  0
  4  5  1  0
  5  6  1  0
  6  7  1  1
  5  8  2  0
  8  9  1  0
  9 10  2  0
 10 11  1  0
 11 12  1  0
 12 13  2  0
 13 14  1  0
 14 15  2  0
 15 16  1  0
 16 17  1  0
 16 18  2  0
 10  3  1  0
 18 12  1  0
M  END
$$$$
