_rank10
     RDKit          3D

 18 19  0  0  0  0  0  0  0  0999 V2000
   26.0601   -1.1616   -7.5964 N   0  0  0  0  0  0  0  0  0  0  0  0
   25.8101   -0.8122   -8.6626 C   0  0  0  0  0  0  0  0  0  0  0  0
   25.5108   -0.3568   -9.9849 C   0  0  0  0  0  0  0  0  0  0  0  0
   26.5160    0.2336  -10.7150 C   0  0  0  0  0  0  0  0  0  0  0  0
   26.2373    0.6752  -11.9892 C   0  0  0  0  0  0  0  0  0  0  0  0
   27.3031    1.3132  -12.7924 C   0  0  0  0  0  0  0  0  0  0  0  0
   27.8411    0.4144  -13.7156 O   0  0  0  0  0  0  0  0  0  0  0  0
   24.9681    0.5203  -12.5080 C   0  0  0  0  0  0  0  0  0  0  0  0
   23.9753   -0.0832  -11.7374 C   0  0  0  0  0  0  0  0  0  0  0  0
   24.2335   -0.5316  -10.4610 C   0  0  0  0  0  0  0  0  0  0  0  0
   23.2103   -1.1237   -9.7395 O   0  0  0  0  0  0  0  0  0  0  0  0
   21.8812   -0.9629   -9.9974 C   0  0  0  0  0  0  0  0  0  0  0  0
   21.0654   -2.0176  -10.3333 C   0  0  0  0  0  0  0  0  0  0  0  0
   19.7346   -1.8250  -10.5867 N   0  0  0  0  0  0  0  0  0  0  0  0
   19.1620   -0.6114  -10.5217 C   0  0  0  0  0  0  0  0  0  0  0  0
   19.9487    0.4673  -10.1883 C   0  0  0  0  0  0  0  0  0  0  0  0
   19.4299    1.7347  -10.1036 F   0  0  0  0  0  0  0  0  0  0  0  0
   21.3045    0.2830   -9.9283 C   0  0  0  0  0  0  0  0  0  0  0  0
  1  2  3  0
  2  3  1  0
  3  4  2  0
  4  5  1  0
  5  6  1  0
  6  7  1  1
  5  8  2  0
  8  9  1  0
  9 10  2  0
 10 11  1  0
 11 12  1  0
 12 13  2  0
 13 14  1  0
 14 15  2  0
 15 16  1  0
 16 17  1  0
 16 18  2  0
 10  3  1  0
 18 12  1  0
M  END
$$$$
