_rank3
     RDKit          3D

 18 19  0  0  0  0  0  0  0  0999 V2000
   26.1714    0.3972  -13.5511 N   0  0  0  0  0  0  0  0  0  0  0  0
   26.0411    0.2149  -12.4237 C   0  0  0  0  0  0  0  0  0  0  0  0
   25.8558   -0.0051  -11.0226 C   0  0  0  0  0  0  0  0  0  0  0  0
   26.9515    0.0895  -10.1966 C   0  0  0  0  0  0  0  0  0  0  0  0
   26.7829   -0.1207   -8.8462 C   0  0  0  0  0  0  0  0  0  0  0  0
   27.9474   -0.0240   -7.9391 C   0  0  0  0  0  0  0  0  0  0  0  0
   27.8587    1.1094   -7.1285 O   0  0  0  0  0  0  0  0  0  0  0  0
   25.5312   -0.4196   -8.3482 C   0  0  0  0  0  0  0  0  0  0  0  0
   24.4445   -0.5068   -9.2170 C   0  0  0  0  0  0  0  0  0  0  0  0
   24.5919   -0.3001  -10.5708 C   0  0  0  0  0  0  0  0  0  0  0  0
   23.4784   -0.3991  -11.3884 O   0  0  0  0  0  0  0  0  0  0  0  0
   22.1942   -0.5125  -10.9450 C   0  0  0  0  0  0  0  0  0  0  0  0
   21.5123   -1.7064  -10.9672 C   0  0  0  0  0  0  0  0  0  0  0  0
   20.2234   -1.7892  -10.5151 N   0  0  0  0  0  0  0  0  0  0  0  0
   19.5645   -0.7228  -10.0320 C   0  0  0  0  0  0  0  0  0  0  0  0
   20.2164    0.4886   -9.9948 C   0  0  0  0  0  0  0  0  0  0  0  0
   19.6039    1.6184   -9.5142 F   0  0  0  0  0  0  0  0  0  0  0  0
   21.5284    0.5846  -10.4523 C   0  0  0  0  0  0  0  0  0  0  0  0
  1  2  3  0
  2  3  1  0
  3  4  2  0
  4  5  1  0
  5  6  1  0
  6  7  1  1
  5  8  2  0
  8  9  1  0
  9 10  2  0
 10 11  1  0
 11 12  1  0
 12 13  2  0
 13 14  1  0
 14 15  2  0
 15 16  1  0
 16 17  1  0
 16 18  2  0
 10  3  1  0
 18 12  1  0
M  END
$$$$
