_rank16
     RDKit          3D

 18 19  0  0  0  0  0  0  0  0999 V2000
   24.9496   -3.9670   -9.3217 N   0  0  0  0  0  0  0  0  0  0  0  0
   25.3374   -2.9094   -9.5505 C   0  0  0  0  0  0  0  0  0  0  0  0
   25.8251   -1.5905   -9.8117 C   0  0  0  0  0  0  0  0  0  0  0  0
   26.9571   -1.1708   -9.1528 C   0  0  0  0  0  0  0  0  0  0  0  0
   27.4341    0.0976   -9.3979 C   0  0  0  0  0  0  0  0  0  0  0  0
   28.6501    0.5700   -8.7005 C   0  0  0  0  0  0  0  0  0  0  0  0
   28.3236    1.2241   -7.5109 O   0  0  0  0  0  0  0  0  0  0  0  0
   26.7762    0.9187  -10.2908 C   0  0  0  0  0  0  0  0  0  0  0  0
   25.6316    0.4576  -10.9394 C   0  0  0  0  0  0  0  0  0  0  0  0
   25.1383   -0.8074  -10.7083 C   0  0  0  0  0  0  0  0  0  0  0  0
   23.9975   -1.2143  -11.3799 O   0  0  0  0  0  0  0  0  0  0  0  0
   22.7407   -1.2138  -10.8515 C   0  0  0  0  0  0  0  0  0  0  0  0
   22.5075   -1.0107   -9.5116 C   0  0  0  0  0  0  0  0  0  0  0  0
   21.2343   -1.0157   -9.0102 N   0  0  0  0  0  0  0  0  0  0  0  0
   20.1588   -1.2166   -9.7899 C   0  0  0  0  0  0  0  0  0  0  0  0
   20.3550   -1.4233  -11.1363 C   0  0  0  0  0  0  0  0  0  0  0  0
   19.3022   -1.6348  -11.9904 F   0  0  0  0  0  0  0  0  0  0  0  0
   21.6465   -1.4203  -11.6575 C   0  0  0  0  0  0  0  0  0  0  0  0
  1  2  3  0
  2  3  1  0
  3  4  2  0
  4  5  1  0
  5  6  1  0
  6  7  1  1
  5  8  2  0
  8  9  1  0
  9 10  2  0
 10 11  1  0
 11 12  1  0
 12 13  2  0
 13 14  1  0
 14 15  2  0
 15 16  1  0
 16 17  1  0
 16 18  2  0
 10  3  1  0
 18 12  1  0
M  END
$$$$
