_rank9
     RDKit          3D

 18 19  0  0  0  0  0  0  0  0999 V2000
   26.7556    0.5056  -13.1786 N   0  0  0  0  0  0  0  0  0  0  0  0
   26.5296    0.2336  -12.0848 C   0  0  0  0  0  0  0  0  0  0  0  0
   26.2379   -0.1253  -10.7314 C   0  0  0  0  0  0  0  0  0  0  0  0
   27.2825   -0.2202   -9.8417 C   0  0  0  0  0  0  0  0  0  0  0  0
   27.0114   -0.5651   -8.5364 C   0  0  0  0  0  0  0  0  0  0  0  0
   28.1194   -0.6731   -7.5623 C   0  0  0  0  0  0  0  0  0  0  0  0
   28.7997    0.5402   -7.4404 O   0  0  0  0  0  0  0  0  0  0  0  0
   25.7103   -0.8075   -8.1456 C   0  0  0  0  0  0  0  0  0  0  0  0
   24.6780   -0.7013   -9.0764 C   0  0  0  0  0  0  0  0  0  0  0  0
   24.9280   -0.3576  -10.3866 C   0  0  0  0  0  0  0  0  0  0  0  0
   23.8648   -0.2664  -11.2695 O   0  0  0  0  0  0  0  0  0  0  0  0
   22.5580   -0.4705  -10.9386 C   0  0  0  0  0  0  0  0  0  0  0  0
   21.6434    0.5553  -10.8922 C   0  0  0  0  0  0  0  0  0  0  0  0
   20.3380    0.3196  -10.5566 N   0  0  0  0  0  0  0  0  0  0  0  0
   19.8865   -0.9102  -10.2586 C   0  0  0  0  0  0  0  0  0  0  0  0
   20.7745   -1.9608  -10.2949 C   0  0  0  0  0  0  0  0  0  0  0  0
   20.3817   -3.2425  -10.0021 F   0  0  0  0  0  0  0  0  0  0  0  0
   22.1056   -1.7325  -10.6352 C   0  0  0  0  0  0  0  0  0  0  0  0
  1  2  3  0
  2  3  1  0
  3  4  2  0
  4  5  1  0
  5  6  1  0
  6  7  1  1
  5  8  2  0
  8  9  1  0
  9 10  2  0
 10 11  1  0
 11 12  1  0
 12 13  2  0
 13 14  1  0
 14 15  2  0
 15 16  1  0
 16 17  1  0
 16 18  2  0
 10  3  1  0
 18 12  1  0
M  END
$$$$
