_rank4
     RDKit          3D

 18 19  0  0  0  0  0  0  0  0999 V2000
   25.7128   -0.6598  -13.7215 N   0  0  0  0  0  0  0  0  0  0  0  0
   25.5944   -0.5427  -12.5841 C   0  0  0  0  0  0  0  0  0  0  0  0
   25.4414   -0.3737  -11.1722 C   0  0  0  0  0  0  0  0  0  0  0  0
   26.5753   -0.2636  -10.4014 C   0  0  0  0  0  0  0  0  0  0  0  0
   26.4379   -0.1006   -9.0410 C   0  0  0  0  0  0  0  0  0  0  0  0
   27.6437    0.0200   -8.1926 C   0  0  0  0  0  0  0  0  0  0  0  0
   27.6850   -0.9936   -7.2331 O   0  0  0  0  0  0  0  0  0  0  0  0
   25.1789   -0.0508   -8.4783 C   0  0  0  0  0  0  0  0  0  0  0  0
   24.0531   -0.1661   -9.2925 C   0  0  0  0  0  0  0  0  0  0  0  0
   24.1688   -0.3297  -10.6552 C   0  0  0  0  0  0  0  0  0  0  0  0
   23.0171   -0.4389  -11.4166 O   0  0  0  0  0  0  0  0  0  0  0  0
   21.7620   -0.6054  -10.9110 C   0  0  0  0  0  0  0  0  0  0  0  0
   21.2219   -1.8489  -10.6809 C   0  0  0  0  0  0  0  0  0  0  0  0
   19.9588   -1.9845  -10.1724 N   0  0  0  0  0  0  0  0  0  0  0  0
   19.1895   -0.9240   -9.8748 C   0  0  0  0  0  0  0  0  0  0  0  0
   19.6981    0.3361  -10.0924 C   0  0  0  0  0  0  0  0  0  0  0  0
   18.9675    1.4629   -9.8110 F   0  0  0  0  0  0  0  0  0  0  0  0
   20.9825    0.4859  -10.6096 C   0  0  0  0  0  0  0  0  0  0  0  0
  1  2  3  0
  2  3  1  0
  3  4  2  0
  4  5  1  0
  5  6  1  0
  6  7  1  1
  5  8  2  0
  8  9  1  0
  9 10  2  0
 10 11  1  0
 11 12  1  0
 12 13  2  0
 13 14  1  0
 14 15  2  0
 15 16  1  0
 16 17  1  0
 16 18  2  0
 10  3  1  0
 18 12  1  0
M  END
$$$$
