_rank6
     RDKit          3D

 18 19  0  0  0  0  0  0  0  0999 V2000
   26.1025   -0.4138  -13.3723 N   0  0  0  0  0  0  0  0  0  0  0  0
   25.9133   -0.3726  -12.2392 C   0  0  0  0  0  0  0  0  0  0  0  0
   25.6671   -0.3000  -10.8322 C   0  0  0  0  0  0  0  0  0  0  0  0
   26.7092    0.0474  -10.0044 C   0  0  0  0  0  0  0  0  0  0  0  0
   26.4818    0.1200   -8.6482 C   0  0  0  0  0  0  0  0  0  0  0  0
   27.5879    0.4917   -7.7391 C   0  0  0  0  0  0  0  0  0  0  0  0
   28.7050   -0.3189   -7.9512 O   0  0  0  0  0  0  0  0  0  0  0  0
   25.2259   -0.1540   -8.1463 C   0  0  0  0  0  0  0  0  0  0  0  0
   24.1946   -0.5027   -9.0171 C   0  0  0  0  0  0  0  0  0  0  0  0
   24.4013   -0.5809  -10.3766 C   0  0  0  0  0  0  0  0  0  0  0  0
   23.3414   -0.9321  -11.1960 O   0  0  0  0  0  0  0  0  0  0  0  0
   22.0295   -0.9082  -10.8255 C   0  0  0  0  0  0  0  0  0  0  0  0
   21.2467   -2.0387  -10.8222 C   0  0  0  0  0  0  0  0  0  0  0  0
   19.9324   -1.9835  -10.4452 N   0  0  0  0  0  0  0  0  0  0  0  0
   19.3450   -0.8372  -10.0633 C   0  0  0  0  0  0  0  0  0  0  0  0
   20.0987    0.3141  -10.0546 C   0  0  0  0  0  0  0  0  0  0  0  0
   19.5631    1.5193   -9.6760 F   0  0  0  0  0  0  0  0  0  0  0  0
   21.4374    0.2697  -10.4364 C   0  0  0  0  0  0  0  0  0  0  0  0
  1  2  3  0
  2  3  1  0
  3  4  2  0
  4  5  1  0
  5  6  1  0
  6  7  1  1
  5  8  2  0
  8  9  1  0
  9 10  2  0
 10 11  1  0
 11 12  1  0
 12 13  2  0
 13 14  1  0
 14 15  2  0
 15 16  1  0
 16 17  1  0
 16 18  2  0
 10  3  1  0
 18 12  1  0
M  END
$$$$
