_rank5
     RDKit          3D

 26 28  0  0  0  0  0  0  0  0999 V2000
   28.1628    0.7232   -7.7045 C   0  0  0  0  0  0  0  0  0  0  0  0
   27.5791   -0.7484   -8.5335 S   0  0  1  0  0  6  0  0  0  0  0  0
   28.6120   -1.2417   -9.4892 O   0  0  0  0  0  0  0  0  0  0  0  0
   27.2644   -1.7979   -7.4800 O   0  0  0  0  0  0  0  0  0  0  0  0
   26.1289   -0.3646   -9.4195 C   0  0  0  0  0  0  0  0  0  0  0  0
   24.9127   -0.4972   -8.8105 C   0  0  0  0  0  0  0  0  0  0  0  0
   23.7755   -0.1912   -9.5207 C   0  0  0  0  0  0  0  0  0  0  0  0
   23.8806    0.2483  -10.8468 C   0  0  0  0  0  0  0  0  0  0  0  0
   22.7184    0.5511  -11.5432 O   0  0  0  0  0  0  0  0  0  0  0  0
   21.4801    0.2460  -11.0384 C   0  0  0  0  0  0  0  0  0  0  0  0
   20.6976    1.2176  -10.4662 C   0  0  0  0  0  0  0  0  0  0  0  0
   19.4324    0.9104   -9.9494 C   0  0  0  0  0  0  0  0  0  0  0  0
   18.6386    1.8434   -9.3803 F   0  0  0  0  0  0  0  0  0  0  0  0
   18.9722   -0.3821  -10.0182 C   0  0  0  0  0  0  0  0  0  0  0  0
   19.7544   -1.3817  -10.5963 C   0  0  0  0  0  0  0  0  0  0  0  0
   19.2318   -2.7059  -10.6433 C   0  0  0  0  0  0  0  0  0  0  0  0
   18.7871   -3.7803  -10.6879 N   0  0  0  0  0  0  0  0  0  0  0  0
   21.0084   -1.0391  -11.1002 C   0  0  0  0  0  0  0  0  0  0  0  0
   25.1131    0.3752  -11.4417 C   0  0  0  0  0  0  0  0  0  0  0  0
   26.2572    0.0705  -10.7366 C   0  0  0  0  0  0  0  0  0  0  0  0
   27.4537    0.2845  -11.5869 C   0  0  2  0  0  0  0  0  0  0  0  0
   27.8927    1.6060  -11.5661 O   0  0  0  0  0  0  0  0  0  0  0  0
   26.8318    0.0543  -12.9721 C   0  0  0  0  0  0  0  0  0  0  0  0
   25.5294    0.8070  -12.7961 C   0  0  1  0  0  0  0  0  0  0  0  0
   24.6100    0.4804  -13.7657 F   0  0  0  0  0  0  0  0  0  0  0  0
   25.8332    2.1534  -12.7993 F   0  0  0  0  0  0  0  0  0  0  0  0
  1  2  1  1
  2  3  2  0
  2  4  2  0
  2  5  1  6
  5  6  2  0
  6  7  1  0
  7  8  2  0
  8  9  1  0
  9 10  1  0
 10 11  2  0
 11 12  1  0
 12 13  1  0
 12 14  2  0
 14 15  1  0
 15 16  1  0
 16 17  3  0
 15 18  2  0
  8 19  1  0
 19 20  2  0
 20 21  1  0
 21 22  1  6
 23 21  1  1
 23 24  1  0
 24 25  1  6
 24 26  1  0
 20  5  1  0
 18 10  1  0
 24 19  1  0
M  END
$$$$
