_rank17
     RDKit          3D

 26 28  0  0  0  0  0  0  0  0999 V2000
   27.6580   -1.5173   -6.9805 C   0  0  0  0  0  0  0  0  0  0  0  0
   27.9737   -0.4837   -8.4037 S   0  0  1  0  0  6  0  0  0  0  0  0
   28.4071    0.8739   -7.9648 O   0  0  0  0  0  0  0  0  0  0  0  0
   29.0442   -1.1511   -9.2515 O   0  0  0  0  0  0  0  0  0  0  0  0
   26.5083   -0.3342   -9.3341 C   0  0  0  0  0  0  0  0  0  0  0  0
   25.3021   -0.5549   -8.7310 C   0  0  0  0  0  0  0  0  0  0  0  0
   24.1527   -0.4338   -9.4763 C   0  0  0  0  0  0  0  0  0  0  0  0
   24.2356   -0.0888  -10.8316 C   0  0  0  0  0  0  0  0  0  0  0  0
   23.0616    0.0275  -11.5633 O   0  0  0  0  0  0  0  0  0  0  0  0
   21.8525   -0.3615  -11.0452 C   0  0  0  0  0  0  0  0  0  0  0  0
   21.4680   -1.6787  -11.0759 C   0  0  0  0  0  0  0  0  0  0  0  0
   20.2343   -2.0804  -10.5480 C   0  0  0  0  0  0  0  0  0  0  0  0
   19.8270   -3.3681  -10.5629 F   0  0  0  0  0  0  0  0  0  0  0  0
   19.4008   -1.1400   -9.9929 C   0  0  0  0  0  0  0  0  0  0  0  0
   19.7759    0.2027   -9.9535 C   0  0  0  0  0  0  0  0  0  0  0  0
   18.8762    1.1385   -9.3672 C   0  0  0  0  0  0  0  0  0  0  0  0
   18.1270    1.8977   -8.9019 N   0  0  0  0  0  0  0  0  0  0  0  0
   21.0111    0.5658  -10.4884 C   0  0  0  0  0  0  0  0  0  0  0  0
   25.4584    0.1292  -11.4202 C   0  0  0  0  0  0  0  0  0  0  0  0
   26.6145    0.0098  -10.6799 C   0  0  0  0  0  0  0  0  0  0  0  0
   27.7971    0.2903  -11.5303 C   0  0  2  0  0  0  0  0  0  0  0  0
   28.0865    1.6503  -11.6086 O   0  0  0  0  0  0  0  0  0  0  0  0
   27.2330   -0.1141  -12.9002 C   0  0  0  0  0  0  0  0  0  0  0  0
   25.8519    0.4993  -12.7995 C   0  0  1  0  0  0  0  0  0  0  0  0
   24.9944   -0.0019  -13.7510 F   0  0  0  0  0  0  0  0  0  0  0  0
   26.0047    1.8669  -12.9052 F   0  0  0  0  0  0  0  0  0  0  0  0
  1  2  1  1
  2  3  2  0
  2  4  2  0
  2  5  1  6
  5  6  2  0
  6  7  1  0
  7  8  2  0
  8  9  1  0
  9 10  1  0
 10 11  2  0
 11 12  1  0
 12 13  1  0
 12 14  2  0
 14 15  1  0
 15 16  1  0
 16 17  3  0
 15 18  2  0
  8 19  1  0
 19 20  2  0
 20 21  1  0
 21 22  1  6
 23 21  1  1
 23 24  1  0
 24 25  1  6
 24 26  1  0
 20  5  1  0
 18 10  1  0
 24 19  1  0
M  END
$$$$
