_rank14
     RDKit          3D

 26 28  0  0  0  0  0  0  0  0999 V2000
   27.5730   -1.4723   -7.4449 C   0  0  0  0  0  0  0  0  0  0  0  0
   27.7828   -0.3417   -8.8128 S   0  0  1  0  0  6  0  0  0  0  0  0
   28.0018    1.0427   -8.3041 O   0  0  0  0  0  0  0  0  0  0  0  0
   28.9652   -0.8114   -9.6444 O   0  0  0  0  0  0  0  0  0  0  0  0
   26.3422   -0.3610   -9.7925 C   0  0  0  0  0  0  0  0  0  0  0  0
   25.1859   -0.8784   -9.2798 C   0  0  0  0  0  0  0  0  0  0  0  0
   24.0557   -0.8879  -10.0633 C   0  0  0  0  0  0  0  0  0  0  0  0
   24.1068   -0.3710  -11.3644 C   0  0  0  0  0  0  0  0  0  0  0  0
   22.9530   -0.3915  -12.1361 O   0  0  0  0  0  0  0  0  0  0  0  0
   21.7238   -0.6413  -11.5810 C   0  0  0  0  0  0  0  0  0  0  0  0
   21.1521   -1.8855  -11.6753 C   0  0  0  0  0  0  0  0  0  0  0  0
   19.8970   -2.1452  -11.1100 C   0  0  0  0  0  0  0  0  0  0  0  0
   19.3077   -3.3582  -11.1854 F   0  0  0  0  0  0  0  0  0  0  0  0
   19.2326   -1.1380  -10.4532 C   0  0  0  0  0  0  0  0  0  0  0  0
   19.7991    0.1321  -10.3481 C   0  0  0  0  0  0  0  0  0  0  0  0
   19.0700    1.1419   -9.6571 C   0  0  0  0  0  0  0  0  0  0  0  0
   18.4767    1.9792   -9.1084 N   0  0  0  0  0  0  0  0  0  0  0  0
   21.0497    0.3539  -10.9230 C   0  0  0  0  0  0  0  0  0  0  0  0
   25.2795    0.1453  -11.8620 C   0  0  0  0  0  0  0  0  0  0  0  0
   26.4161    0.1582  -11.0831 C   0  0  0  0  0  0  0  0  0  0  0  0
   27.5443    0.7596  -11.8354 C   0  0  2  0  0  0  0  0  0  0  0  0
   27.5657    2.1490  -11.7431 O   0  0  0  0  0  0  0  0  0  0  0  0
   27.1071    0.4253  -13.2691 C   0  0  0  0  0  0  0  0  0  0  0  0
   25.6309    0.7484  -13.1685 C   0  0  1  0  0  0  0  0  0  0  0  0
   24.9135    0.2133  -14.2129 F   0  0  0  0  0  0  0  0  0  0  0  0
   25.5177    2.1228  -13.1095 F   0  0  0  0  0  0  0  0  0  0  0  0
  1  2  1  1
  2  3  2  0
  2  4  2  0
  2  5  1  6
  5  6  2  0
  6  7  1  0
  7  8  2  0
  8  9  1  0
  9 10  1  0
 10 11  2  0
 11 12  1  0
 12 13  1  0
 12 14  2  0
 14 15  1  0
 15 16  1  0
 16 17  3  0
 15 18  2  0
  8 19  1  0
 19 20  2  0
 20 21  1  0
 21 22  1  6
 23 21  1  1
 23 24  1  0
 24 25  1  6
 24 26  1  0
 20  5  1  0
 18 10  1  0
 24 19  1  0
M  END
$$$$
