_rank10
     RDKit          3D

 26 28  0  0  0  0  0  0  0  0999 V2000
   29.0297   -1.4228   -8.9972 C   0  0  0  0  0  0  0  0  0  0  0  0
   27.8353   -0.2396   -8.3915 S   0  0  1  0  0  6  0  0  0  0  0  0
   27.4379   -0.5816   -6.9956 O   0  0  0  0  0  0  0  0  0  0  0  0
   28.4580    1.1454   -8.4582 O   0  0  0  0  0  0  0  0  0  0  0  0
   26.4212   -0.2879   -9.4081 C   0  0  0  0  0  0  0  0  0  0  0  0
   25.2304   -0.7085   -8.8858 C   0  0  0  0  0  0  0  0  0  0  0  0
   24.1216   -0.7421   -9.6986 C   0  0  0  0  0  0  0  0  0  0  0  0
   24.2290   -0.3478  -11.0386 C   0  0  0  0  0  0  0  0  0  0  0  0
   23.0958   -0.3904  -11.8394 O   0  0  0  0  0  0  0  0  0  0  0  0
   21.8469   -0.5799  -11.3047 C   0  0  0  0  0  0  0  0  0  0  0  0
   21.2332   -1.8055  -11.3746 C   0  0  0  0  0  0  0  0  0  0  0  0
   19.9579   -2.0035  -10.8300 C   0  0  0  0  0  0  0  0  0  0  0  0
   19.3274   -3.1969  -10.8825 F   0  0  0  0  0  0  0  0  0  0  0  0
   19.3163   -0.9542  -10.2183 C   0  0  0  0  0  0  0  0  0  0  0  0
   19.9255    0.2979  -10.1384 C   0  0  0  0  0  0  0  0  0  0  0  0
   19.2185    1.3532   -9.4940 C   0  0  0  0  0  0  0  0  0  0  0  0
   18.6572    2.2273   -8.9695 N   0  0  0  0  0  0  0  0  0  0  0  0
   21.1952    0.4580  -10.6916 C   0  0  0  0  0  0  0  0  0  0  0  0
   25.4357    0.0723  -11.5453 C   0  0  0  0  0  0  0  0  0  0  0  0
   26.5513    0.1088  -10.7372 C   0  0  0  0  0  0  0  0  0  0  0  0
   27.7239    0.5923  -11.5062 C   0  0  2  0  0  0  0  0  0  0  0  0
   27.8038    1.9823  -11.5380 O   0  0  0  0  0  0  0  0  0  0  0  0
   27.3098    0.1480  -12.9167 C   0  0  0  0  0  0  0  0  0  0  0  0
   25.8470    0.5396  -12.8894 C   0  0  1  0  0  0  0  0  0  0  0  0
   25.1341   -0.0578  -13.9027 F   0  0  0  0  0  0  0  0  0  0  0  0
   25.7927    1.9172  -12.9569 F   0  0  0  0  0  0  0  0  0  0  0  0
  1  2  1  1
  2  3  2  0
  2  4  2  0
  2  5  1  6
  5  6  2  0
  6  7  1  0
  7  8  2  0
  8  9  1  0
  9 10  1  0
 10 11  2  0
 11 12  1  0
 12 13  1  0
 12 14  2  0
 14 15  1  0
 15 16  1  0
 16 17  3  0
 15 18  2  0
  8 19  1  0
 19 20  2  0
 20 21  1  0
 21 22  1  6
 23 21  1  1
 23 24  1  0
 24 25  1  6
 24 26  1  0
 20  5  1  0
 18 10  1  0
 24 19  1  0
M  END
$$$$
