_rank20
     RDKit          3D

 26 28  0  0  0  0  0  0  0  0999 V2000
   26.2787    4.1391  -13.1781 C   0  0  0  0  0  0  0  0  0  0  0  0
   27.2251    2.9541  -12.2329 S   0  0  1  0  0  6  0  0  0  0  0  0
   28.1199    2.1754  -13.1365 O   0  0  0  0  0  0  0  0  0  0  0  0
   28.0287    3.7091  -11.1867 O   0  0  0  0  0  0  0  0  0  0  0  0
   26.1304    1.8550  -11.4397 C   0  0  0  0  0  0  0  0  0  0  0  0
   24.8094    1.8505  -11.7897 C   0  0  0  0  0  0  0  0  0  0  0  0
   23.9555    0.9783  -11.1561 C   0  0  0  0  0  0  0  0  0  0  0  0
   24.4492    0.1148  -10.1696 C   0  0  0  0  0  0  0  0  0  0  0  0
   23.5679   -0.7566   -9.5441 O   0  0  0  0  0  0  0  0  0  0  0  0
   22.2258   -0.7441   -9.8267 C   0  0  0  0  0  0  0  0  0  0  0  0
   21.4387    0.3129   -9.4432 C   0  0  0  0  0  0  0  0  0  0  0  0
   20.0676    0.3299   -9.7297 C   0  0  0  0  0  0  0  0  0  0  0  0
   19.2663    1.3547   -9.3661 F   0  0  0  0  0  0  0  0  0  0  0  0
   19.5071   -0.7276  -10.4039 C   0  0  0  0  0  0  0  0  0  0  0  0
   20.2924   -1.8097  -10.8010 C   0  0  0  0  0  0  0  0  0  0  0  0
   19.6634   -2.8813  -11.4973 C   0  0  0  0  0  0  0  0  0  0  0  0
   19.1584   -3.7700  -12.0536 N   0  0  0  0  0  0  0  0  0  0  0  0
   21.6532   -1.7923  -10.4986 C   0  0  0  0  0  0  0  0  0  0  0  0
   25.7813    0.1344   -9.8315 C   0  0  0  0  0  0  0  0  0  0  0  0
   26.6431    1.0055  -10.4619 C   0  0  0  0  0  0  0  0  0  0  0  0
   28.0174    0.8403   -9.9285 C   0  0  2  0  0  0  0  0  0  0  0  0
   28.7169   -0.1816  -10.5656 O   0  0  0  0  0  0  0  0  0  0  0  0
   27.6883    0.3289   -8.5183 C   0  0  0  0  0  0  0  0  0  0  0  0
   26.5753   -0.6426   -8.8516 C   0  0  1  0  0  0  0  0  0  0  0  0
   25.8492   -0.9967   -7.7383 F   0  0  0  0  0  0  0  0  0  0  0  0
   27.1572   -1.7349   -9.4625 F   0  0  0  0  0  0  0  0  0  0  0  0
  1  2  1  1
  2  3  2  0
  2  4  2  0
  2  5  1  1
  5  6  2  0
  6  7  1  0
  7  8  2  0
  8  9  1  0
  9 10  1  0
 10 11  2  0
 11 12  1  0
 12 13  1  0
 12 14  2  0
 14 15  1  0
 15 16  1  0
 16 17  3  0
 15 18  2  0
  8 19  1  0
 19 20  2  0
 20 21  1  0
 21 22  1  6
 23 21  1  1
 23 24  1  0
 24 25  1  1
 24 26  1  0
 20  5  1  0
 18 10  1  0
 24 19  1  0
M  END
$$$$
