_rank10
     RDKit          3D

 21 23  0  0  0  0  0  0  0  0999 V2000
   25.5325    1.2298  -12.7852 O   0  0  0  0  0  0  0  0  0  0  0  0
   26.0832    0.4346  -12.0207 N   0  0  0  0  0  4  0  0  0  0  0  0
   27.2164   -0.1954  -12.5414 O   0  0  0  0  0  1  0  0  0  0  0  0
   25.6788    0.1388  -10.7072 C   0  0  0  0  0  0  0  0  0  0  0  0
   24.3754   -0.1834  -10.3708 C   0  0  0  0  0  0  0  0  0  0  0  0
   23.3300   -0.2245  -11.3126 N   0  0  0  0  0  0  0  0  0  0  0  0
   21.9422   -0.2854  -11.0256 C   0  0  0  0  0  0  0  0  0  0  0  0
   21.1926    0.8562  -10.7747 C   0  0  0  0  0  0  0  0  0  0  0  0
   19.8464    0.7915  -10.4990 C   0  0  0  0  0  0  0  0  0  0  0  0
   19.1793   -0.4249  -10.4607 C   0  0  0  0  0  0  0  0  0  0  0  0
   17.8454   -0.4971  -10.1896 F   0  0  0  0  0  0  0  0  0  0  0  0
   19.9054   -1.5622  -10.7067 C   0  0  0  0  0  0  0  0  0  0  0  0
   19.1244   -3.1400  -10.6755 Cl  0  0  0  0  0  0  0  0  0  0  0  0
   21.2728   -1.4913  -10.9857 C   0  0  0  0  0  0  0  0  0  0  0  0
   24.1255   -0.5016   -9.0287 C   0  0  0  0  0  0  0  0  0  0  0  0
   25.1375   -0.4902   -8.0944 C   0  0  0  0  0  0  0  0  0  0  0  0
   26.4273   -0.1644   -8.4540 C   0  0  0  0  0  0  0  0  0  0  0  0
   27.5757   -0.0755   -7.7609 N   0  0  0  0  0  0  0  0  0  0  0  0
   28.5380    0.2811   -8.5916 O   0  0  0  0  0  0  0  0  0  0  0  0
   28.0208    0.4171   -9.7853 N   0  0  0  0  0  0  0  0  0  0  0  0
   26.7092    0.1515   -9.7564 C   0  0  0  0  0  0  0  0  0  0  0  0
  1  2  2  0
  2  3  1  0
  2  4  1  0
  4  5  2  0
  5  6  1  0
  6  7  1  0
  7  8  2  0
  8  9  1  0
  9 10  2  0
 10 11  1  0
 10 12  1  0
 12 13  1  0
 12 14  2  0
  5 15  1  0
 15 16  2  0
 16 17  1  0
 17 18  2  0
 18 19  1  0
 19 20  1  0
 20 21  2  0
 21  4  1  0
 14  7  1  0
 21 17  1  0
M  CHG  2   2   1   3  -1
M  END
$$$$
