_rank11
     RDKit          3D

 21 23  0  0  0  0  0  0  0  0999 V2000
   25.4206   -0.1914  -12.9829 O   0  0  0  0  0  0  0  0  0  0  0  0
   26.0436    0.1533  -11.9763 N   0  0  0  0  0  4  0  0  0  0  0  0
   27.2606    0.7924  -12.2261 O   0  0  0  0  0  1  0  0  0  0  0  0
   25.6267   -0.0286  -10.6461 C   0  0  0  0  0  0  0  0  0  0  0  0
   24.3129   -0.2825  -10.2925 C   0  0  0  0  0  0  0  0  0  0  0  0
   23.2689   -0.3620  -11.2335 N   0  0  0  0  0  0  0  0  0  0  0  0
   21.8815   -0.4270  -10.9459 C   0  0  0  0  0  0  0  0  0  0  0  0
   21.2015    0.6329  -10.3609 C   0  0  0  0  0  0  0  0  0  0  0  0
   19.8552    0.5651  -10.0861 C   0  0  0  0  0  0  0  0  0  0  0  0
   19.1181   -0.5722  -10.3847 C   0  0  0  0  0  0  0  0  0  0  0  0
   17.7836   -0.6464  -10.1169 F   0  0  0  0  0  0  0  0  0  0  0  0
   19.7749   -1.6282  -10.9633 C   0  0  0  0  0  0  0  0  0  0  0  0
   18.9029   -3.1028  -11.3702 Cl  0  0  0  0  0  0  0  0  0  0  0  0
   21.1427   -1.5547  -11.2399 C   0  0  0  0  0  0  0  0  0  0  0  0
   24.0497   -0.4894   -8.9313 C   0  0  0  0  0  0  0  0  0  0  0  0
   25.0593   -0.4392   -7.9957 C   0  0  0  0  0  0  0  0  0  0  0  0
   26.3597   -0.1829   -8.3728 C   0  0  0  0  0  0  0  0  0  0  0  0
   27.5088   -0.0781   -7.6829 N   0  0  0  0  0  0  0  0  0  0  0  0
   28.4840    0.1834   -8.5337 O   0  0  0  0  0  0  0  0  0  0  0  0
   27.9743    0.2445   -9.7368 N   0  0  0  0  0  0  0  0  0  0  0  0
   26.6547    0.0238   -9.6941 C   0  0  0  0  0  0  0  0  0  0  0  0
  1  2  2  0
  2  3  1  0
  2  4  1  0
  4  5  2  0
  5  6  1  0
  6  7  1  0
  7  8  2  0
  8  9  1  0
  9 10  2  0
 10 11  1  0
 10 12  1  0
 12 13  1  0
 12 14  2  0
  5 15  1  0
 15 16  2  0
 16 17  1  0
 17 18  2  0
 18 19  1  0
 19 20  1  0
 20 21  2  0
 21  4  1  0
 14  7  1  0
 21 17  1  0
M  CHG  2   2   1   3  -1
M  END
$$$$
