_rank2
     RDKit          3D

 21 23  0  0  0  0  0  0  0  0999 V2000
   27.3321    0.3803  -12.4081 O   0  0  0  0  0  0  0  0  0  0  0  0
   26.1524    0.2862  -12.0624 N   0  0  0  0  0  4  0  0  0  0  0  0
   25.2256    0.3442  -13.1063 O   0  0  0  0  0  1  0  0  0  0  0  0
   25.6901    0.1151  -10.7458 C   0  0  0  0  0  0  0  0  0  0  0  0
   24.3675   -0.1503  -10.4363 C   0  0  0  0  0  0  0  0  0  0  0  0
   23.3589   -0.2534  -11.4130 N   0  0  0  0  0  0  0  0  0  0  0  0
   21.9950   -0.5673  -11.1828 C   0  0  0  0  0  0  0  0  0  0  0  0
   21.4872   -1.8415  -11.3988 C   0  0  0  0  0  0  0  0  0  0  0  0
   20.1639   -2.1409  -11.1718 C   0  0  0  0  0  0  0  0  0  0  0  0
   19.2778   -1.1756  -10.7145 C   0  0  0  0  0  0  0  0  0  0  0  0
   17.9655   -1.4648  -10.4858 F   0  0  0  0  0  0  0  0  0  0  0  0
   19.7636    0.0883  -10.4957 C   0  0  0  0  0  0  0  0  0  0  0  0
   18.6968    1.3630   -9.9148 Cl  0  0  0  0  0  0  0  0  0  0  0  0
   21.1086    0.3877  -10.7284 C   0  0  0  0  0  0  0  0  0  0  0  0
   24.0579   -0.3441   -9.0830 C   0  0  0  0  0  0  0  0  0  0  0  0
   25.0326   -0.2708   -8.1125 C   0  0  0  0  0  0  0  0  0  0  0  0
   26.3427   -0.0035   -8.4460 C   0  0  0  0  0  0  0  0  0  0  0  0
   27.4650    0.1232   -7.7168 N   0  0  0  0  0  0  0  0  0  0  0  0
   28.4670    0.3862   -8.5353 O   0  0  0  0  0  0  0  0  0  0  0  0
   28.0002    0.4270   -9.7565 N   0  0  0  0  0  0  0  0  0  0  0  0
   26.6826    0.1910   -9.7584 C   0  0  0  0  0  0  0  0  0  0  0  0
  1  2  2  0
  2  3  1  0
  2  4  1  0
  4  5  2  0
  5  6  1  0
  6  7  1  0
  7  8  2  0
  8  9  1  0
  9 10  2  0
 10 11  1  0
 10 12  1  0
 12 13  1  0
 12 14  2  0
  5 15  1  0
 15 16  2  0
 16 17  1  0
 17 18  2  0
 18 19  1  0
 19 20  1  0
 20 21  2  0
 21  4  1  0
 14  7  1  0
 21 17  1  0
M  CHG  2   2   1   3  -1
M  END
$$$$
