_rank18
     RDKit          3D

 21 23  0  0  0  0  0  0  0  0999 V2000
   25.3630    2.7442  -11.8143 O   0  0  0  0  0  0  0  0  0  0  0  0
   24.5027    2.0528  -11.2647 N   0  0  0  0  0  4  0  0  0  0  0  0
   23.2662    2.6792  -11.0894 O   0  0  0  0  0  1  0  0  0  0  0  0
   24.6643    0.7248  -10.8325 C   0  0  0  0  0  0  0  0  0  0  0  0
   23.6965    0.0372  -10.1211 C   0  0  0  0  0  0  0  0  0  0  0  0
   22.4676    0.6132   -9.7475 N   0  0  0  0  0  0  0  0  0  0  0  0
   21.1780    0.1660  -10.1336 C   0  0  0  0  0  0  0  0  0  0  0  0
   20.0663    0.9964  -10.0831 C   0  0  0  0  0  0  0  0  0  0  0  0
   18.8182    0.5580  -10.4608 C   0  0  0  0  0  0  0  0  0  0  0  0
   18.6190   -0.7396  -10.9105 C   0  0  0  0  0  0  0  0  0  0  0  0
   17.3858   -1.1810  -11.2879 F   0  0  0  0  0  0  0  0  0  0  0  0
   19.7072   -1.5727  -10.9668 C   0  0  0  0  0  0  0  0  0  0  0  0
   19.5288   -3.2321  -11.5282 Cl  0  0  0  0  0  0  0  0  0  0  0  0
   20.9729   -1.1229  -10.5814 C   0  0  0  0  0  0  0  0  0  0  0  0
   23.9749   -1.2977   -9.7962 C   0  0  0  0  0  0  0  0  0  0  0  0
   25.1610   -1.8889  -10.1714 C   0  0  0  0  0  0  0  0  0  0  0  0
   26.1099   -1.1824  -10.8782 C   0  0  0  0  0  0  0  0  0  0  0  0
   27.3238   -1.5063  -11.3565 N   0  0  0  0  0  0  0  0  0  0  0  0
   27.8277   -0.4492  -11.9663 O   0  0  0  0  0  0  0  0  0  0  0  0
   26.9605    0.5263  -11.8816 N   0  0  0  0  0  0  0  0  0  0  0  0
   25.8723    0.1240  -11.2138 C   0  0  0  0  0  0  0  0  0  0  0  0
  1  2  2  0
  2  3  1  0
  2  4  1  0
  4  5  2  0
  5  6  1  0
  6  7  1  0
  7  8  2  0
  8  9  1  0
  9 10  2  0
 10 11  1  0
 10 12  1  0
 12 13  1  0
 12 14  2  0
  5 15  1  0
 15 16  2  0
 16 17  1  0
 17 18  2  0
 18 19  1  0
 19 20  1  0
 20 21  2  0
 21  4  1  0
 14  7  1  0
 21 17  1  0
M  CHG  2   2   1   3  -1
M  END
$$$$
