_rank12
     RDKit          3D

 21 23  0  0  0  0  0  0  0  0999 V2000
   25.8494    0.1687  -13.0750 O   0  0  0  0  0  0  0  0  0  0  0  0
   26.4635    0.2342  -12.0079 N   0  0  0  0  0  4  0  0  0  0  0  0
   27.8223    0.5370  -12.1272 O   0  0  0  0  0  1  0  0  0  0  0  0
   25.9136    0.0494  -10.7274 C   0  0  0  0  0  0  0  0  0  0  0  0
   24.5913   -0.2996  -10.5145 C   0  0  0  0  0  0  0  0  0  0  0  0
   23.6697   -0.4819  -11.5630 N   0  0  0  0  0  0  0  0  0  0  0  0
   22.2804   -0.7332  -11.4265 C   0  0  0  0  0  0  0  0  0  0  0  0
   21.6169   -1.6512  -12.2297 C   0  0  0  0  0  0  0  0  0  0  0  0
   20.2696   -1.8924  -12.0915 C   0  0  0  0  0  0  0  0  0  0  0  0
   19.5149   -1.2241  -11.1377 C   0  0  0  0  0  0  0  0  0  0  0  0
   18.1799   -1.4587  -10.9937 F   0  0  0  0  0  0  0  0  0  0  0  0
   20.1554   -0.3141  -10.3358 C   0  0  0  0  0  0  0  0  0  0  0  0
   19.2610    0.5701   -9.1035 Cl  0  0  0  0  0  0  0  0  0  0  0  0
   21.5241   -0.0721  -10.4805 C   0  0  0  0  0  0  0  0  0  0  0  0
   24.1920   -0.4965   -9.1854 C   0  0  0  0  0  0  0  0  0  0  0  0
   25.0822   -0.3461   -8.1452 C   0  0  0  0  0  0  0  0  0  0  0  0
   26.3938    0.0036   -8.3829 C   0  0  0  0  0  0  0  0  0  0  0  0
   27.4459    0.2140   -7.5730 N   0  0  0  0  0  0  0  0  0  0  0  0
   28.4886    0.5328   -8.3176 O   0  0  0  0  0  0  0  0  0  0  0  0
   28.1154    0.5269   -9.5713 N   0  0  0  0  0  0  0  0  0  0  0  0
   26.8201    0.2037   -9.6690 C   0  0  0  0  0  0  0  0  0  0  0  0
  1  2  2  0
  2  3  1  0
  2  4  1  0
  4  5  2  0
  5  6  1  0
  6  7  1  0
  7  8  2  0
  8  9  1  0
  9 10  2  0
 10 11  1  0
 10 12  1  0
 12 13  1  0
 12 14  2  0
  5 15  1  0
 15 16  2  0
 16 17  1  0
 17 18  2  0
 18 19  1  0
 19 20  1  0
 20 21  2  0
 21  4  1  0
 14  7  1  0
 21 17  1  0
M  CHG  2   2   1   3  -1
M  END
$$$$
