_rank5
     RDKit          3D

 21 23  0  0  0  0  0  0  0  0999 V2000
   27.3144    0.1071  -12.4397 O   0  0  0  0  0  0  0  0  0  0  0  0
   26.1293   -0.0362  -12.1313 N   0  0  0  0  0  4  0  0  0  0  0  0
   25.2599   -0.2346  -13.2069 O   0  0  0  0  0  1  0  0  0  0  0  0
   25.6108   -0.0308  -10.8246 C   0  0  0  0  0  0  0  0  0  0  0  0
   24.2852   -0.3035  -10.5349 C   0  0  0  0  0  0  0  0  0  0  0  0
   23.3290   -0.5921  -11.5268 N   0  0  0  0  0  0  0  0  0  0  0  0
   21.9375   -0.7780  -11.3240 C   0  0  0  0  0  0  0  0  0  0  0  0
   21.2913   -1.9510  -11.6905 C   0  0  0  0  0  0  0  0  0  0  0  0
   19.9417   -2.1266  -11.4895 C   0  0  0  0  0  0  0  0  0  0  0  0
   19.1673   -1.1325  -10.9083 C   0  0  0  0  0  0  0  0  0  0  0  0
   17.8299   -1.2995  -10.7044 F   0  0  0  0  0  0  0  0  0  0  0  0
   19.7905    0.0325  -10.5400 C   0  0  0  0  0  0  0  0  0  0  0  0
   18.8705    1.3367   -9.7962 Cl  0  0  0  0  0  0  0  0  0  0  0  0
   21.1616    0.2064  -10.7469 C   0  0  0  0  0  0  0  0  0  0  0  0
   23.9184   -0.3087   -9.1820 C   0  0  0  0  0  0  0  0  0  0  0  0
   24.8422   -0.0518   -8.1932 C   0  0  0  0  0  0  0  0  0  0  0  0
   26.1564    0.2187   -8.5074 C   0  0  0  0  0  0  0  0  0  0  0  0
   27.2372    0.4990   -7.7587 N   0  0  0  0  0  0  0  0  0  0  0  0
   28.2672    0.6808   -8.5644 O   0  0  0  0  0  0  0  0  0  0  0  0
   27.8583    0.5212   -9.7966 N   0  0  0  0  0  0  0  0  0  0  0  0
   26.5515    0.2319   -9.8186 C   0  0  0  0  0  0  0  0  0  0  0  0
  1  2  2  0
  2  3  1  0
  2  4  1  0
  4  5  2  0
  5  6  1  0
  6  7  1  0
  7  8  2  0
  8  9  1  0
  9 10  2  0
 10 11  1  0
 10 12  1  0
 12 13  1  0
 12 14  2  0
  5 15  1  0
 15 16  2  0
 16 17  1  0
 17 18  2  0
 18 19  1  0
 19 20  1  0
 20 21  2  0
 21  4  1  0
 14  7  1  0
 21 17  1  0
M  CHG  2   2   1   3  -1
M  END
$$$$
