_rank4
     RDKit          3D

 21 23  0  0  0  0  0  0  0  0999 V2000
   27.1247   -0.6871  -12.5393 O   0  0  0  0  0  0  0  0  0  0  0  0
   26.1392   -0.0799  -12.1149 N   0  0  0  0  0  4  0  0  0  0  0  0
   25.3909    0.5844  -13.0901 O   0  0  0  0  0  1  0  0  0  0  0  0
   25.7203   -0.0226  -10.7741 C   0  0  0  0  0  0  0  0  0  0  0  0
   24.4058   -0.2088  -10.3831 C   0  0  0  0  0  0  0  0  0  0  0  0
   23.3630   -0.4532  -11.2966 N   0  0  0  0  0  0  0  0  0  0  0  0
   21.9730   -0.3653  -11.0284 C   0  0  0  0  0  0  0  0  0  0  0  0
   21.4026    0.7702  -10.4686 C   0  0  0  0  0  0  0  0  0  0  0  0
   20.0534    0.8507  -10.2126 C   0  0  0  0  0  0  0  0  0  0  0  0
   19.2029   -0.2060  -10.5056 C   0  0  0  0  0  0  0  0  0  0  0  0
   17.8647   -0.1333  -10.2563 F   0  0  0  0  0  0  0  0  0  0  0  0
   19.7505   -1.3350  -11.0594 C   0  0  0  0  0  0  0  0  0  0  0  0
   18.7312   -2.7144  -11.4580 Cl  0  0  0  0  0  0  0  0  0  0  0  0
   21.1218   -1.4123  -11.3171 C   0  0  0  0  0  0  0  0  0  0  0  0
   24.1406   -0.1707   -9.0072 C   0  0  0  0  0  0  0  0  0  0  0  0
   25.1489    0.0440   -8.0938 C   0  0  0  0  0  0  0  0  0  0  0  0
   26.4501    0.2284   -8.5084 C   0  0  0  0  0  0  0  0  0  0  0  0
   27.5984    0.4532   -7.8464 N   0  0  0  0  0  0  0  0  0  0  0  0
   28.5749    0.5589   -8.7286 O   0  0  0  0  0  0  0  0  0  0  0  0
   28.0669    0.4059   -9.9242 N   0  0  0  0  0  0  0  0  0  0  0  0
   26.7471    0.1971   -9.8450 C   0  0  0  0  0  0  0  0  0  0  0  0
  1  2  2  0
  2  3  1  0
  2  4  1  0
  4  5  2  0
  5  6  1  0
  6  7  1  0
  7  8  2  0
  8  9  1  0
  9 10  2  0
 10 11  1  0
 10 12  1  0
 12 13  1  0
 12 14  2  0
  5 15  1  0
 15 16  2  0
 16 17  1  0
 17 18  2  0
 18 19  1  0
 19 20  1  0
 20 21  2  0
 21  4  1  0
 14  7  1  0
 21 17  1  0
M  CHG  2   2   1   3  -1
M  END
$$$$
