_rank1
     RDKit          3D

 21 23  0  0  0  0  0  0  0  0999 V2000
   27.3640    0.2810  -12.4581 O   0  0  0  0  0  0  0  0  0  0  0  0
   26.1916    0.1177  -12.1133 N   0  0  0  0  0  4  0  0  0  0  0  0
   25.2729    0.0448  -13.1634 O   0  0  0  0  0  1  0  0  0  0  0  0
   25.7312   -0.0116  -10.7912 C   0  0  0  0  0  0  0  0  0  0  0  0
   24.4095   -0.2691  -10.4716 C   0  0  0  0  0  0  0  0  0  0  0  0
   23.3999   -0.4054  -11.4432 N   0  0  0  0  0  0  0  0  0  0  0  0
   22.0316   -0.6886  -11.1993 C   0  0  0  0  0  0  0  0  0  0  0  0
   21.4587   -1.9042  -11.5488 C   0  0  0  0  0  0  0  0  0  0  0  0
   20.1315   -2.1742  -11.3079 C   0  0  0  0  0  0  0  0  0  0  0  0
   19.3069   -1.2369  -10.7019 C   0  0  0  0  0  0  0  0  0  0  0  0
   17.9912   -1.4975  -10.4585 F   0  0  0  0  0  0  0  0  0  0  0  0
   19.8574   -0.0309  -10.3500 C   0  0  0  0  0  0  0  0  0  0  0  0
   18.8707    1.2054   -9.5765 Cl  0  0  0  0  0  0  0  0  0  0  0  0
   21.2060    0.2389  -10.5974 C   0  0  0  0  0  0  0  0  0  0  0  0
   24.1020   -0.4198   -9.1124 C   0  0  0  0  0  0  0  0  0  0  0  0
   25.0777   -0.3135   -8.1461 C   0  0  0  0  0  0  0  0  0  0  0  0
   26.3870   -0.0549   -8.4897 C   0  0  0  0  0  0  0  0  0  0  0  0
   27.5099    0.0972   -7.7664 N   0  0  0  0  0  0  0  0  0  0  0  0
   28.5105    0.3353   -8.5943 O   0  0  0  0  0  0  0  0  0  0  0  0
   28.0420    0.3359   -9.8155 N   0  0  0  0  0  0  0  0  0  0  0  0
   26.7248    0.0978   -9.8081 C   0  0  0  0  0  0  0  0  0  0  0  0
  1  2  2  0
  2  3  1  0
  2  4  1  0
  4  5  2  0
  5  6  1  0
  6  7  1  0
  7  8  2  0
  8  9  1  0
  9 10  2  0
 10 11  1  0
 10 12  1  0
 12 13  1  0
 12 14  2  0
  5 15  1  0
 15 16  2  0
 16 17  1  0
 17 18  2  0
 18 19  1  0
 19 20  1  0
 20 21  2  0
 21  4  1  0
 14  7  1  0
 21 17  1  0
M  CHG  2   2   1   3  -1
M  END
$$$$
