_rank19
     RDKit          3D

 21 23  0  0  0  0  0  0  0  0999 V2000
   22.2324   -1.7144  -12.9582 O   0  0  0  0  0  0  0  0  0  0  0  0
   21.3843   -0.9497  -12.4933 N   0  0  0  0  0  4  0  0  0  0  0  0
   20.4298   -0.5006  -13.4095 O   0  0  0  0  0  1  0  0  0  0  0  0
   21.3014   -0.5255  -11.1555 C   0  0  0  0  0  0  0  0  0  0  0  0
   22.3466   -0.6474  -10.2566 C   0  0  0  0  0  0  0  0  0  0  0  0
   23.5839   -1.2270  -10.5957 N   0  0  0  0  0  0  0  0  0  0  0  0
   24.8509   -0.8741  -10.0645 C   0  0  0  0  0  0  0  0  0  0  0  0
   24.9954   -0.3766   -8.7762 C   0  0  0  0  0  0  0  0  0  0  0  0
   26.2270   -0.0380   -8.2655 C   0  0  0  0  0  0  0  0  0  0  0  0
   27.3817   -0.1812   -9.0219 C   0  0  0  0  0  0  0  0  0  0  0  0
   28.6058    0.1507   -8.5224 F   0  0  0  0  0  0  0  0  0  0  0  0
   27.2563   -0.6718  -10.2966 C   0  0  0  0  0  0  0  0  0  0  0  0
   28.6788   -0.8808  -11.3131 Cl  0  0  0  0  0  0  0  0  0  0  0  0
   26.0029   -1.0138  -10.8112 C   0  0  0  0  0  0  0  0  0  0  0  0
   22.1386   -0.1383   -8.9672 C   0  0  0  0  0  0  0  0  0  0  0  0
   20.9444    0.4536   -8.6200 C   0  0  0  0  0  0  0  0  0  0  0  0
   19.9178    0.5616   -9.5329 C   0  0  0  0  0  0  0  0  0  0  0  0
   18.6788    1.0782   -9.4599 N   0  0  0  0  0  0  0  0  0  0  0  0
   18.0925    0.9238  -10.6327 O   0  0  0  0  0  0  0  0  0  0  0  0
   18.9326    0.3245  -11.4364 N   0  0  0  0  0  0  0  0  0  0  0  0
   20.0851    0.0759  -10.8025 C   0  0  0  0  0  0  0  0  0  0  0  0
  1  2  2  0
  2  3  1  0
  2  4  1  0
  4  5  2  0
  5  6  1  0
  6  7  1  0
  7  8  2  0
  8  9  1  0
  9 10  2  0
 10 11  1  0
 10 12  1  0
 12 13  1  0
 12 14  2  0
  5 15  1  0
 15 16  2  0
 16 17  1  0
 17 18  2  0
 18 19  1  0
 19 20  1  0
 20 21  2  0
 21  4  1  0
 14  7  1  0
 21 17  1  0
M  CHG  2   2   1   3  -1
M  END
$$$$
