_rank9
     RDKit          3D

 21 23  0  0  0  0  0  0  0  0999 V2000
   26.8693   -0.4563  -12.5007 O   0  0  0  0  0  0  0  0  0  0  0  0
   25.8242   -0.1208  -11.9391 N   0  0  0  0  0  4  0  0  0  0  0  0
   24.8031    0.2988  -12.7955 O   0  0  0  0  0  1  0  0  0  0  0  0
   25.5886   -0.1441  -10.5533 C   0  0  0  0  0  0  0  0  0  0  0  0
   24.4234   -0.6364   -9.9917 C   0  0  0  0  0  0  0  0  0  0  0  0
   23.3575   -1.1413  -10.7602 N   0  0  0  0  0  0  0  0  0  0  0  0
   21.9975   -0.7481  -10.6717 C   0  0  0  0  0  0  0  0  0  0  0  0
   21.6162    0.4549  -10.0925 C   0  0  0  0  0  0  0  0  0  0  0  0
   20.2958    0.8321  -10.0113 C   0  0  0  0  0  0  0  0  0  0  0  0
   19.2856    0.0207  -10.5084 C   0  0  0  0  0  0  0  0  0  0  0  0
   17.9752    0.3882  -10.4330 F   0  0  0  0  0  0  0  0  0  0  0  0
   19.6455   -1.1710  -11.0840 C   0  0  0  0  0  0  0  0  0  0  0  0
   18.4169   -2.2504  -11.7366 Cl  0  0  0  0  0  0  0  0  0  0  0  0
   20.9882   -1.5502  -11.1636 C   0  0  0  0  0  0  0  0  0  0  0  0
   24.3448   -0.6405   -8.5922 C   0  0  0  0  0  0  0  0  0  0  0  0
   25.3848   -0.1727   -7.8197 C   0  0  0  0  0  0  0  0  0  0  0  0
   26.5345    0.3142   -8.4029 C   0  0  0  0  0  0  0  0  0  0  0  0
   27.6726    0.8213   -7.8981 N   0  0  0  0  0  0  0  0  0  0  0  0
   28.4664    1.1454   -8.9020 O   0  0  0  0  0  0  0  0  0  0  0  0
   27.8541    0.8540  -10.0206 N   0  0  0  0  0  0  0  0  0  0  0  0
   26.6472    0.3333   -9.7676 C   0  0  0  0  0  0  0  0  0  0  0  0
  1  2  2  0
  2  3  1  0
  2  4  1  0
  4  5  2  0
  5  6  1  0
  6  7  1  0
  7  8  2  0
  8  9  1  0
  9 10  2  0
 10 11  1  0
 10 12  1  0
 12 13  1  0
 12 14  2  0
  5 15  1  0
 15 16  2  0
 16 17  1  0
 17 18  2  0
 18 19  1  0
 19 20  1  0
 20 21  2  0
 21  4  1  0
 14  7  1  0
 21 17  1  0
M  CHG  2   2   1   3  -1
M  END
$$$$
