_rank17
     RDKit          3D

 21 23  0  0  0  0  0  0  0  0999 V2000
   21.3906   -0.9251  -13.3906 O   0  0  0  0  0  0  0  0  0  0  0  0
   22.1959   -0.9995  -12.4599 N   0  0  0  0  0  4  0  0  0  0  0  0
   23.5108   -1.2812  -12.8391 O   0  0  0  0  0  1  0  0  0  0  0  0
   21.9017   -0.8126  -11.0980 C   0  0  0  0  0  0  0  0  0  0  0  0
   22.7382   -1.2321  -10.0783 C   0  0  0  0  0  0  0  0  0  0  0  0
   23.9531   -1.9036  -10.3126 N   0  0  0  0  0  0  0  0  0  0  0  0
   25.2330   -1.5142   -9.8413 C   0  0  0  0  0  0  0  0  0  0  0  0
   26.3930   -2.1634  -10.2425 C   0  0  0  0  0  0  0  0  0  0  0  0
   27.6320   -1.7801   -9.7838 C   0  0  0  0  0  0  0  0  0  0  0  0
   27.7732   -0.7224   -8.8965 C   0  0  0  0  0  0  0  0  0  0  0  0
   28.9975   -0.3358   -8.4386 F   0  0  0  0  0  0  0  0  0  0  0  0
   26.6369   -0.0702   -8.4905 C   0  0  0  0  0  0  0  0  0  0  0  0
   26.7407    1.2813   -7.3667 Cl  0  0  0  0  0  0  0  0  0  0  0  0
   25.3805   -0.4638   -8.9589 C   0  0  0  0  0  0  0  0  0  0  0  0
   22.3396   -0.9371   -8.7672 C   0  0  0  0  0  0  0  0  0  0  0  0
   21.1664   -0.2608   -8.5153 C   0  0  0  0  0  0  0  0  0  0  0  0
   20.3494    0.1452   -9.5481 C   0  0  0  0  0  0  0  0  0  0  0  0
   19.1773    0.8028   -9.5835 N   0  0  0  0  0  0  0  0  0  0  0  0
   18.8136    0.9398  -10.8452 O   0  0  0  0  0  0  0  0  0  0  0  0
   19.7276    0.3852  -11.5989 N   0  0  0  0  0  0  0  0  0  0  0  0
   20.7068   -0.1251  -10.8423 C   0  0  0  0  0  0  0  0  0  0  0  0
  1  2  2  0
  2  3  1  0
  2  4  1  0
  4  5  2  0
  5  6  1  0
  6  7  1  0
  7  8  2  0
  8  9  1  0
  9 10  2  0
 10 11  1  0
 10 12  1  0
 12 13  1  0
 12 14  2  0
  5 15  1  0
 15 16  2  0
 16 17  1  0
 17 18  2  0
 18 19  1  0
 19 20  1  0
 20 21  2  0
 21  4  1  0
 14  7  1  0
 21 17  1  0
M  CHG  2   2   1   3  -1
M  END
$$$$
