_rank20
     RDKit          3D

 21 22  0  0  0  0  0  0  0  0999 V2000
   19.2335   -2.4368  -10.6911 N   0  0  0  0  0  0  0  0  0  0  0  0
   20.3346   -2.0388  -10.8376 C   0  0  0  0  0  0  0  0  0  0  0  0
   21.6742   -1.5587  -10.9914 C   0  0  0  0  0  0  0  0  0  0  0  0
   22.6166   -1.9818  -10.0613 C   0  0  0  0  0  0  0  0  0  0  0  0
   23.9076   -1.5607  -10.1246 C   0  0  0  0  0  0  0  0  0  0  0  0
   24.2730   -0.6860  -11.1517 C   0  0  0  0  0  0  0  0  0  0  0  0
   25.5886   -0.2975  -11.1601 O   0  0  0  0  0  0  0  0  0  0  0  0
   26.4630   -0.4106  -10.0738 C   0  0  0  0  0  0  0  0  0  0  0  0
   26.3052    0.3999   -8.9651 C   0  0  0  0  0  0  0  0  0  0  0  0
   27.1799    0.2960   -7.8821 C   0  0  0  0  0  0  0  0  0  0  0  0
   26.9965    1.1674   -6.7838 N   0  0  0  0  0  0  0  0  0  0  0  0
   28.2006   -0.6316   -7.9444 C   0  0  0  0  0  0  0  0  0  0  0  0
   28.3739   -1.4544   -9.0539 C   0  0  0  0  0  0  0  0  0  0  0  0
   29.3810   -2.3582   -9.1125 F   0  0  0  0  0  0  0  0  0  0  0  0
   27.4975   -1.3386  -10.1197 C   0  0  0  0  0  0  0  0  0  0  0  0
   23.3633   -0.2685  -12.0700 C   0  0  0  0  0  0  0  0  0  0  0  0
   23.6697    0.5680  -13.2517 C   0  0  2  0  0  0  0  0  0  0  0  0
   22.6747    0.8667  -14.0945 F   0  0  0  0  0  0  0  0  0  0  0  0
   24.8149    0.1037  -13.9198 F   0  0  0  0  0  0  0  0  0  0  0  0
   24.1259    1.7962  -12.6968 F   0  0  0  0  0  0  0  0  0  0  0  0
   22.0490   -0.7168  -11.9764 C   0  0  0  0  0  0  0  0  0  0  0  0
  1  2  3  0
  2  3  1  0
  3  4  2  0
  4  5  1  0
  5  6  2  0
  6  7  1  0
  7  8  1  0
  8  9  2  0
  9 10  1  0
 10 11  1  0
 10 12  2  0
 12 13  1  0
 13 14  1  0
 13 15  2  0
  6 16  1  0
 16 17  1  0
 17 18  1  6
 17 19  1  0
 17 20  1  0
 16 21  2  0
 21  3  1  0
 15  8  1  0
M  END
$$$$
