_rank4
     RDKit          3D

 21 22  0  0  0  0  0  0  0  0999 V2000
   28.6144   -0.1568   -7.1375 N   0  0  0  0  0  0  0  0  0  0  0  0
   27.7452   -0.1114   -7.9342 C   0  0  0  0  0  0  0  0  0  0  0  0
   26.6984   -0.0776   -8.9097 C   0  0  0  0  0  0  0  0  0  0  0  0
   25.4339   -0.4908   -8.5064 C   0  0  0  0  0  0  0  0  0  0  0  0
   24.3872   -0.5053   -9.3738 C   0  0  0  0  0  0  0  0  0  0  0  0
   24.6084   -0.0936  -10.6910 C   0  0  0  0  0  0  0  0  0  0  0  0
   23.5134   -0.1322  -11.5164 O   0  0  0  0  0  0  0  0  0  0  0  0
   22.1844   -0.1710  -11.0809 C   0  0  0  0  0  0  0  0  0  0  0  0
   21.6121   -1.3690  -10.6959 C   0  0  0  0  0  0  0  0  0  0  0  0
   20.2840   -1.4138  -10.2680 C   0  0  0  0  0  0  0  0  0  0  0  0
   19.7339   -2.6671   -9.9133 N   0  0  0  0  0  0  0  0  0  0  0  0
   19.5599   -0.2386  -10.2381 C   0  0  0  0  0  0  0  0  0  0  0  0
   20.1211    0.9758  -10.6235 C   0  0  0  0  0  0  0  0  0  0  0  0
   19.4043    2.1246  -10.5985 F   0  0  0  0  0  0  0  0  0  0  0  0
   21.4397    1.0028  -11.0454 C   0  0  0  0  0  0  0  0  0  0  0  0
   25.8378    0.3172  -11.0971 C   0  0  0  0  0  0  0  0  0  0  0  0
   26.1517    0.8699  -12.4336 C   0  0  2  0  0  0  0  0  0  0  0  0
   25.5070    0.3725  -13.4949 F   0  0  0  0  0  0  0  0  0  0  0  0
   27.5394    0.9464  -12.6386 F   0  0  0  0  0  0  0  0  0  0  0  0
   25.7892    2.2421  -12.3338 F   0  0  0  0  0  0  0  0  0  0  0  0
   26.8890    0.3187  -10.1849 C   0  0  0  0  0  0  0  0  0  0  0  0
  1  2  3  0
  2  3  1  0
  3  4  2  0
  4  5  1  0
  5  6  2  0
  6  7  1  0
  7  8  1  0
  8  9  2  0
  9 10  1  0
 10 11  1  0
 10 12  2  0
 12 13  1  0
 13 14  1  0
 13 15  2  0
  6 16  1  0
 16 17  1  0
 17 18  1  6
 17 19  1  0
 17 20  1  0
 16 21  2  0
 21  3  1  0
 15  8  1  0
M  END
$$$$
