_rank17
     RDKit          3D

 21 22  0  0  0  0  0  0  0  0999 V2000
   28.8019   -0.3041   -6.8286 N   0  0  0  0  0  0  0  0  0  0  0  0
   27.9621   -0.1714   -7.6467 C   0  0  0  0  0  0  0  0  0  0  0  0
   26.9270   -0.0070   -8.6215 C   0  0  0  0  0  0  0  0  0  0  0  0
   25.6697    0.3688   -8.1629 C   0  0  0  0  0  0  0  0  0  0  0  0
   24.6266    0.5310   -9.0195 C   0  0  0  0  0  0  0  0  0  0  0  0
   24.8439    0.3105  -10.3824 C   0  0  0  0  0  0  0  0  0  0  0  0
   23.7522    0.4894  -11.1938 O   0  0  0  0  0  0  0  0  0  0  0  0
   22.5486   -0.2148  -11.0821 C   0  0  0  0  0  0  0  0  0  0  0  0
   21.3664    0.3523  -11.5199 C   0  0  0  0  0  0  0  0  0  0  0  0
   20.1617   -0.3435  -11.4034 C   0  0  0  0  0  0  0  0  0  0  0  0
   18.9746    0.2903  -11.8375 N   0  0  0  0  0  0  0  0  0  0  0  0
   20.1796   -1.6056  -10.8440 C   0  0  0  0  0  0  0  0  0  0  0  0
   21.3614   -2.1904  -10.3972 C   0  0  0  0  0  0  0  0  0  0  0  0
   21.3723   -3.4262   -9.8431 F   0  0  0  0  0  0  0  0  0  0  0  0
   22.5476   -1.4867  -10.5201 C   0  0  0  0  0  0  0  0  0  0  0  0
   26.0685   -0.0524  -10.8446 C   0  0  0  0  0  0  0  0  0  0  0  0
   26.4281   -0.2062  -12.2719 C   0  0  2  0  0  0  0  0  0  0  0  0
   27.5145   -0.9233  -12.5802 F   0  0  0  0  0  0  0  0  0  0  0  0
   26.3957    1.0292  -12.9400 F   0  0  0  0  0  0  0  0  0  0  0  0
   25.3112   -0.8810  -12.8389 F   0  0  0  0  0  0  0  0  0  0  0  0
   27.1154   -0.2118   -9.9413 C   0  0  0  0  0  0  0  0  0  0  0  0
  1  2  3  0
  2  3  1  0
  3  4  2  0
  4  5  1  0
  5  6  2  0
  6  7  1  0
  7  8  1  0
  8  9  2  0
  9 10  1  0
 10 11  1  0
 10 12  2  0
 12 13  1  0
 13 14  1  0
 13 15  2  0
  6 16  1  0
 16 17  1  0
 17 18  1  1
 17 19  1  0
 17 20  1  0
 16 21  2  0
 21  3  1  0
 15  8  1  0
M  END
$$$$
