_rank15
     RDKit          3D

 21 22  0  0  0  0  0  0  0  0999 V2000
   28.6321   -1.6735   -7.6929 N   0  0  0  0  0  0  0  0  0  0  0  0
   27.7363   -1.5187   -8.4450 C   0  0  0  0  0  0  0  0  0  0  0  0
   26.6485   -1.3075   -9.3509 C   0  0  0  0  0  0  0  0  0  0  0  0
   25.4324   -1.9057   -9.0417 C   0  0  0  0  0  0  0  0  0  0  0  0
   24.3526   -1.7694   -9.8562 C   0  0  0  0  0  0  0  0  0  0  0  0
   24.4894   -1.0100  -11.0216 C   0  0  0  0  0  0  0  0  0  0  0  0
   23.3648   -0.9117  -11.8010 O   0  0  0  0  0  0  0  0  0  0  0  0
   22.0568   -0.8302  -11.3113 C   0  0  0  0  0  0  0  0  0  0  0  0
   21.0787   -1.6808  -11.7918 C   0  0  0  0  0  0  0  0  0  0  0  0
   19.7704   -1.5980  -11.3118 C   0  0  0  0  0  0  0  0  0  0  0  0
   18.7984   -2.4689  -11.8558 N   0  0  0  0  0  0  0  0  0  0  0  0
   19.4787   -0.6516  -10.3499 C   0  0  0  0  0  0  0  0  0  0  0  0
   20.4518    0.2131   -9.8563 C   0  0  0  0  0  0  0  0  0  0  0  0
   20.1586    1.1441   -8.9174 F   0  0  0  0  0  0  0  0  0  0  0  0
   21.7446    0.1178  -10.3431 C   0  0  0  0  0  0  0  0  0  0  0  0
   25.6705   -0.4161  -11.3334 C   0  0  0  0  0  0  0  0  0  0  0  0
   25.8897    0.4910  -12.4820 C   0  0  2  0  0  0  0  0  0  0  0  0
   24.8725    0.7093  -13.3230 F   0  0  0  0  0  0  0  0  0  0  0  0
   27.0825    0.1790  -13.1554 F   0  0  0  0  0  0  0  0  0  0  0  0
   26.2055    1.7408  -11.8800 F   0  0  0  0  0  0  0  0  0  0  0  0
   26.7577   -0.5763  -10.4791 C   0  0  0  0  0  0  0  0  0  0  0  0
  1  2  3  0
  2  3  1  0
  3  4  2  0
  4  5  1  0
  5  6  2  0
  6  7  1  0
  7  8  1  0
  8  9  2  0
  9 10  1  0
 10 11  1  0
 10 12  2  0
 12 13  1  0
 13 14  1  0
 13 15  2  0
  6 16  1  0
 16 17  1  0
 17 18  1  6
 17 19  1  0
 17 20  1  0
 16 21  2  0
 21  3  1  0
 15  8  1  0
M  END
$$$$
