_rank7
     RDKit          3D

 21 22  0  0  0  0  0  0  0  0999 V2000
   28.5383    0.4844   -6.8833 N   0  0  0  0  0  0  0  0  0  0  0  0
   27.7063    0.3296   -7.7054 C   0  0  0  0  0  0  0  0  0  0  0  0
   26.6934    0.1659   -8.7033 C   0  0  0  0  0  0  0  0  0  0  0  0
   25.4453   -0.2780   -8.2817 C   0  0  0  0  0  0  0  0  0  0  0  0
   24.4319   -0.4757   -9.1660 C   0  0  0  0  0  0  0  0  0  0  0  0
   24.6707   -0.2224  -10.5197 C   0  0  0  0  0  0  0  0  0  0  0  0
   23.6092   -0.4419  -11.3605 O   0  0  0  0  0  0  0  0  0  0  0  0
   22.2673   -0.4642  -10.9656 C   0  0  0  0  0  0  0  0  0  0  0  0
   21.5522   -1.6470  -10.9940 C   0  0  0  0  0  0  0  0  0  0  0  0
   20.2108   -1.6726  -10.6083 C   0  0  0  0  0  0  0  0  0  0  0  0
   19.5131   -2.9001  -10.6833 N   0  0  0  0  0  0  0  0  0  0  0  0
   19.6188   -0.4944  -10.1990 C   0  0  0  0  0  0  0  0  0  0  0  0
   20.3245    0.7052  -10.1658 C   0  0  0  0  0  0  0  0  0  0  0  0
   19.7370    1.8595   -9.7698 F   0  0  0  0  0  0  0  0  0  0  0  0
   21.6544    0.7133  -10.5516 C   0  0  0  0  0  0  0  0  0  0  0  0
   25.8840    0.2162  -10.9446 C   0  0  0  0  0  0  0  0  0  0  0  0
   26.2068    0.6128  -12.3334 C   0  0  2  0  0  0  0  0  0  0  0  0
   27.4940    0.6931  -12.6889 F   0  0  0  0  0  0  0  0  0  0  0  0
   25.4734    1.7463  -12.7215 F   0  0  0  0  0  0  0  0  0  0  0  0
   25.6195   -0.4093  -13.1300 F   0  0  0  0  0  0  0  0  0  0  0  0
   26.9013    0.4071  -10.0140 C   0  0  0  0  0  0  0  0  0  0  0  0
  1  2  3  0
  2  3  1  0
  3  4  2  0
  4  5  1  0
  5  6  2  0
  6  7  1  0
  7  8  1  0
  8  9  2  0
  9 10  1  0
 10 11  1  0
 10 12  2  0
 12 13  1  0
 13 14  1  0
 13 15  2  0
  6 16  1  0
 16 17  1  0
 17 18  1  1
 17 19  1  0
 17 20  1  0
 16 21  2  0
 21  3  1  0
 15  8  1  0
M  END
$$$$
