_rank5
     RDKit          3D

 21 22  0  0  0  0  0  0  0  0999 V2000
   28.3601   -0.0431   -6.8868 N   0  0  0  0  0  0  0  0  0  0  0  0
   27.4859   -0.1164   -7.6759 C   0  0  0  0  0  0  0  0  0  0  0  0
   26.4419   -0.2058   -8.6509 C   0  0  0  0  0  0  0  0  0  0  0  0
   25.1863   -0.6067   -8.2094 C   0  0  0  0  0  0  0  0  0  0  0  0
   24.1431   -0.7333   -9.0719 C   0  0  0  0  0  0  0  0  0  0  0  0
   24.3589   -0.4506  -10.4236 C   0  0  0  0  0  0  0  0  0  0  0  0
   23.2679   -0.5983  -11.2420 O   0  0  0  0  0  0  0  0  0  0  0  0
   21.9479   -0.7335  -10.7986 C   0  0  0  0  0  0  0  0  0  0  0  0
   21.2559    0.3656  -10.3252 C   0  0  0  0  0  0  0  0  0  0  0  0
   19.9412    0.2340   -9.8745 C   0  0  0  0  0  0  0  0  0  0  0  0
   19.2851    1.3810   -9.3712 N   0  0  0  0  0  0  0  0  0  0  0  0
   19.3515   -1.0137   -9.9137 C   0  0  0  0  0  0  0  0  0  0  0  0
   20.0349   -2.1307  -10.3864 C   0  0  0  0  0  0  0  0  0  0  0  0
   19.4539   -3.3537  -10.4164 F   0  0  0  0  0  0  0  0  0  0  0  0
   21.3384   -1.9829  -10.8297 C   0  0  0  0  0  0  0  0  0  0  0  0
   25.5795   -0.0533  -10.8677 C   0  0  0  0  0  0  0  0  0  0  0  0
   25.8847    0.3699  -12.2526 C   0  0  2  0  0  0  0  0  0  0  0  0
   25.5017    1.5906  -12.6435 F   0  0  0  0  0  0  0  0  0  0  0  0
   25.5272   -0.6245  -13.1782 F   0  0  0  0  0  0  0  0  0  0  0  0
   27.3057    0.3405  -12.3177 F   0  0  0  0  0  0  0  0  0  0  0  0
   26.6273    0.0650   -9.9592 C   0  0  0  0  0  0  0  0  0  0  0  0
  1  2  3  0
  2  3  1  0
  3  4  2  0
  4  5  1  0
  5  6  2  0
  6  7  1  0
  7  8  1  0
  8  9  2  0
  9 10  1  0
 10 11  1  0
 10 12  2  0
 12 13  1  0
 13 14  1  0
 13 15  2  0
  6 16  1  0
 16 17  1  0
 17 18  1  6
 17 19  1  0
 17 20  1  0
 16 21  2  0
 21  3  1  0
 15  8  1  0
M  END
$$$$
