_rank1
     RDKit          3D

 21 22  0  0  0  0  0  0  0  0999 V2000
   28.4321   -0.2298   -7.1513 N   0  0  0  0  0  0  0  0  0  0  0  0
   27.5666   -0.2115   -7.9530 C   0  0  0  0  0  0  0  0  0  0  0  0
   26.5276   -0.2073   -8.9375 C   0  0  0  0  0  0  0  0  0  0  0  0
   25.2398   -0.5098   -8.5104 C   0  0  0  0  0  0  0  0  0  0  0  0
   24.1977   -0.5439   -9.3827 C   0  0  0  0  0  0  0  0  0  0  0  0
   24.4478   -0.2670  -10.7297 C   0  0  0  0  0  0  0  0  0  0  0  0
   23.3559   -0.3186  -11.5585 O   0  0  0  0  0  0  0  0  0  0  0  0
   22.0509   -0.6078  -11.1453 C   0  0  0  0  0  0  0  0  0  0  0  0
   21.2762    0.3697  -10.5492 C   0  0  0  0  0  0  0  0  0  0  0  0
   19.9762    0.0837  -10.1282 C   0  0  0  0  0  0  0  0  0  0  0  0
   19.2336    1.1077   -9.4964 N   0  0  0  0  0  0  0  0  0  0  0  0
   19.4853   -1.1922  -10.3213 C   0  0  0  0  0  0  0  0  0  0  0  0
   20.2529   -2.1881  -10.9189 C   0  0  0  0  0  0  0  0  0  0  0  0
   19.7687   -3.4400  -11.0999 F   0  0  0  0  0  0  0  0  0  0  0  0
   21.5404   -1.8878  -11.3307 C   0  0  0  0  0  0  0  0  0  0  0  0
   25.7004    0.0347  -11.1597 C   0  0  0  0  0  0  0  0  0  0  0  0
   26.0512    0.4447  -12.5378 C   0  0  2  0  0  0  0  0  0  0  0  0
   26.9581   -0.2779  -13.2048 F   0  0  0  0  0  0  0  0  0  0  0  0
   26.3106    1.8237  -12.6071 F   0  0  0  0  0  0  0  0  0  0  0  0
   24.8262    0.3356  -13.2532 F   0  0  0  0  0  0  0  0  0  0  0  0
   26.7461    0.0597  -10.2414 C   0  0  0  0  0  0  0  0  0  0  0  0
  1  2  3  0
  2  3  1  0
  3  4  2  0
  4  5  1  0
  5  6  2  0
  6  7  1  0
  7  8  1  0
  8  9  2  0
  9 10  1  0
 10 11  1  0
 10 12  2  0
 12 13  1  0
 13 14  1  0
 13 15  2  0
  6 16  1  0
 16 17  1  0
 17 18  1  6
 17 19  1  0
 17 20  1  0
 16 21  2  0
 21  3  1  0
 15  8  1  0
M  END
$$$$
