_rank3
     RDKit          3D

 21 22  0  0  0  0  0  0  0  0999 V2000
   28.3272    0.4091   -6.9790 N   0  0  0  0  0  0  0  0  0  0  0  0
   27.4789    0.2830   -7.7893 C   0  0  0  0  0  0  0  0  0  0  0  0
   26.4652    0.1169   -8.7860 C   0  0  0  0  0  0  0  0  0  0  0  0
   25.1751   -0.1578   -8.3473 C   0  0  0  0  0  0  0  0  0  0  0  0
   24.1563   -0.3458   -9.2276 C   0  0  0  0  0  0  0  0  0  0  0  0
   24.4330   -0.2572  -10.5947 C   0  0  0  0  0  0  0  0  0  0  0  0
   23.3638   -0.4577  -11.4305 O   0  0  0  0  0  0  0  0  0  0  0  0
   22.0284   -0.5255  -11.0188 C   0  0  0  0  0  0  0  0  0  0  0  0
   21.3643    0.6184  -10.6171 C   0  0  0  0  0  0  0  0  0  0  0  0
   20.0341    0.5544  -10.1981 C   0  0  0  0  0  0  0  0  0  0  0  0
   19.4068    1.7462   -9.7677 N   0  0  0  0  0  0  0  0  0  0  0  0
   19.4010   -0.6725  -10.1955 C   0  0  0  0  0  0  0  0  0  0  0  0
   20.0559   -1.8339  -10.5960 C   0  0  0  0  0  0  0  0  0  0  0  0
   19.4321   -3.0360  -10.5851 F   0  0  0  0  0  0  0  0  0  0  0  0
   21.3752   -1.7530  -11.0087 C   0  0  0  0  0  0  0  0  0  0  0  0
   25.6880    0.0153  -11.0370 C   0  0  0  0  0  0  0  0  0  0  0  0
   26.0629    0.2340  -12.4519 C   0  0  2  0  0  0  0  0  0  0  0  0
   25.3012    1.0464  -13.1931 F   0  0  0  0  0  0  0  0  0  0  0  0
   26.3342   -0.9827  -13.0995 F   0  0  0  0  0  0  0  0  0  0  0  0
   27.3539    0.8276  -12.3795 F   0  0  0  0  0  0  0  0  0  0  0  0
   26.7095    0.2010  -10.1099 C   0  0  0  0  0  0  0  0  0  0  0  0
  1  2  3  0
  2  3  1  0
  3  4  2  0
  4  5  1  0
  5  6  2  0
  6  7  1  0
  7  8  1  0
  8  9  2  0
  9 10  1  0
 10 11  1  0
 10 12  2  0
 12 13  1  0
 13 14  1  0
 13 15  2  0
  6 16  1  0
 16 17  1  0
 17 18  1  6
 17 19  1  0
 17 20  1  0
 16 21  2  0
 21  3  1  0
 15  8  1  0
M  END
$$$$
