_rank19
     RDKit          3D

 21 22  0  0  0  0  0  0  0  0999 V2000
   19.0265   -1.8830  -10.1559 N   0  0  0  0  0  0  0  0  0  0  0  0
   20.1417   -1.5533  -10.3555 C   0  0  0  0  0  0  0  0  0  0  0  0
   21.4956   -1.1443  -10.5751 C   0  0  0  0  0  0  0  0  0  0  0  0
   22.3102   -1.0009   -9.4579 C   0  0  0  0  0  0  0  0  0  0  0  0
   23.6040   -0.6006   -9.5757 C   0  0  0  0  0  0  0  0  0  0  0  0
   24.1044   -0.3331  -10.8530 C   0  0  0  0  0  0  0  0  0  0  0  0
   25.4154    0.0674  -10.9047 O   0  0  0  0  0  0  0  0  0  0  0  0
   26.3570   -0.1444   -9.8918 C   0  0  0  0  0  0  0  0  0  0  0  0
   27.1207    0.9067   -9.4197 C   0  0  0  0  0  0  0  0  0  0  0  0
   28.0670    0.6986   -8.4146 C   0  0  0  0  0  0  0  0  0  0  0  0
   28.8453    1.7985   -7.9859 N   0  0  0  0  0  0  0  0  0  0  0  0
   28.2202   -0.5755   -7.9055 C   0  0  0  0  0  0  0  0  0  0  0  0
   27.4598   -1.6449   -8.3708 C   0  0  0  0  0  0  0  0  0  0  0  0
   27.6189   -2.8942   -7.8725 F   0  0  0  0  0  0  0  0  0  0  0  0
   26.5256   -1.4214   -9.3681 C   0  0  0  0  0  0  0  0  0  0  0  0
   23.3208   -0.4738  -11.9536 C   0  0  0  0  0  0  0  0  0  0  0  0
   23.7813   -0.3190  -13.3515 C   0  0  2  0  0  0  0  0  0  0  0  0
   24.5283    0.7468  -13.6606 F   0  0  0  0  0  0  0  0  0  0  0  0
   22.7263   -0.5136  -14.2585 F   0  0  0  0  0  0  0  0  0  0  0  0
   24.5863   -1.4698  -13.5794 F   0  0  0  0  0  0  0  0  0  0  0  0
   21.9997   -0.8838  -11.7987 C   0  0  0  0  0  0  0  0  0  0  0  0
  1  2  3  0
  2  3  1  0
  3  4  2  0
  4  5  1  0
  5  6  2  0
  6  7  1  0
  7  8  1  0
  8  9  2  0
  9 10  1  0
 10 11  1  0
 10 12  2  0
 12 13  1  0
 13 14  1  0
 13 15  2  0
  6 16  1  0
 16 17  1  0
 17 18  1  1
 17 19  1  0
 17 20  1  0
 16 21  2  0
 21  3  1  0
 15  8  1  0
M  END
$$$$
