_rank2
     RDKit          3D

 21 22  0  0  0  0  0  0  0  0999 V2000
   28.4945   -0.3039   -7.0348 N   0  0  0  0  0  0  0  0  0  0  0  0
   27.6258   -0.2527   -7.8316 C   0  0  0  0  0  0  0  0  0  0  0  0
   26.5722   -0.1664   -8.7965 C   0  0  0  0  0  0  0  0  0  0  0  0
   25.2694   -0.3224   -8.3374 C   0  0  0  0  0  0  0  0  0  0  0  0
   24.2111   -0.2708   -9.1892 C   0  0  0  0  0  0  0  0  0  0  0  0
   24.4598   -0.0566  -10.5477 C   0  0  0  0  0  0  0  0  0  0  0  0
   23.3510   -0.0162  -11.3546 O   0  0  0  0  0  0  0  0  0  0  0  0
   22.0623   -0.3941  -10.9626 C   0  0  0  0  0  0  0  0  0  0  0  0
   21.1796    0.5486  -10.4694 C   0  0  0  0  0  0  0  0  0  0  0  0
   19.8953    0.1749  -10.0697 C   0  0  0  0  0  0  0  0  0  0  0  0
   19.0389    1.1693   -9.5435 N   0  0  0  0  0  0  0  0  0  0  0  0
   19.5296   -1.1519  -10.1792 C   0  0  0  0  0  0  0  0  0  0  0  0
   20.4069   -2.1136  -10.6727 C   0  0  0  0  0  0  0  0  0  0  0  0
   20.0453   -3.4151  -10.7717 F   0  0  0  0  0  0  0  0  0  0  0  0
   21.6772   -1.7263  -11.0647 C   0  0  0  0  0  0  0  0  0  0  0  0
   25.7275    0.1021  -11.0091 C   0  0  0  0  0  0  0  0  0  0  0  0
   26.0894    0.4375  -12.4043 C   0  0  2  0  0  0  0  0  0  0  0  0
   25.6371   -0.3511  -13.3857 F   0  0  0  0  0  0  0  0  0  0  0  0
   27.4638    0.7035  -12.5228 F   0  0  0  0  0  0  0  0  0  0  0  0
   25.5181    1.7243  -12.6097 F   0  0  0  0  0  0  0  0  0  0  0  0
   26.7894    0.0424  -10.1113 C   0  0  0  0  0  0  0  0  0  0  0  0
  1  2  3  0
  2  3  1  0
  3  4  2  0
  4  5  1  0
  5  6  2  0
  6  7  1  0
  7  8  1  0
  8  9  2  0
  9 10  1  0
 10 11  1  0
 10 12  2  0
 12 13  1  0
 13 14  1  0
 13 15  2  0
  6 16  1  0
 16 17  1  0
 17 18  1  6
 17 19  1  0
 17 20  1  0
 16 21  2  0
 21  3  1  0
 15  8  1  0
M  END
$$$$
