_rank10
     RDKit          3D

 21 22  0  0  0  0  0  0  0  0999 V2000
   28.3245    0.8017   -6.9996 N   0  0  0  0  0  0  0  0  0  0  0  0
   27.5062    0.4886   -7.7899 C   0  0  0  0  0  0  0  0  0  0  0  0
   26.4969    0.1213   -8.7360 C   0  0  0  0  0  0  0  0  0  0  0  0
   25.2508   -0.2379   -8.2356 C   0  0  0  0  0  0  0  0  0  0  0  0
   24.2410   -0.6157   -9.0636 C   0  0  0  0  0  0  0  0  0  0  0  0
   24.4816   -0.6370  -10.4403 C   0  0  0  0  0  0  0  0  0  0  0  0
   23.4237   -1.0279  -11.2214 O   0  0  0  0  0  0  0  0  0  0  0  0
   22.0763   -0.8826  -10.8741 C   0  0  0  0  0  0  0  0  0  0  0  0
   21.6133    0.3167  -10.3658 C   0  0  0  0  0  0  0  0  0  0  0  0
   20.2713    0.4640  -10.0106 C   0  0  0  0  0  0  0  0  0  0  0  0
   19.8515    1.6998   -9.4668 N   0  0  0  0  0  0  0  0  0  0  0  0
   19.4218   -0.6113  -10.1792 C   0  0  0  0  0  0  0  0  0  0  0  0
   19.8725   -1.8260  -10.6886 C   0  0  0  0  0  0  0  0  0  0  0  0
   19.0363   -2.8797  -10.8457 F   0  0  0  0  0  0  0  0  0  0  0  0
   21.2066   -1.9554  -11.0360 C   0  0  0  0  0  0  0  0  0  0  0  0
   25.6931   -0.2839  -10.9430 C   0  0  0  0  0  0  0  0  0  0  0  0
   26.0168   -0.1711  -12.3826 C   0  0  2  0  0  0  0  0  0  0  0  0
   27.0779    0.5608  -12.7403 F   0  0  0  0  0  0  0  0  0  0  0  0
   24.8737    0.1402  -13.1376 F   0  0  0  0  0  0  0  0  0  0  0  0
   26.2827   -1.5103  -12.7830 F   0  0  0  0  0  0  0  0  0  0  0  0
   26.7066    0.0966  -10.0682 C   0  0  0  0  0  0  0  0  0  0  0  0
  1  2  3  0
  2  3  1  0
  3  4  2  0
  4  5  1  0
  5  6  2  0
  6  7  1  0
  7  8  1  0
  8  9  2  0
  9 10  1  0
 10 11  1  0
 10 12  2  0
 12 13  1  0
 13 14  1  0
 13 15  2  0
  6 16  1  0
 16 17  1  0
 17 18  1  1
 17 19  1  0
 17 20  1  0
 16 21  2  0
 21  3  1  0
 15  8  1  0
M  END
$$$$
