_rank18
     RDKit          3D

 21 22  0  0  0  0  0  0  0  0999 V2000
   18.3768    1.3822   -8.9705 N   0  0  0  0  0  0  0  0  0  0  0  0
   19.4146    0.9979   -9.3796 C   0  0  0  0  0  0  0  0  0  0  0  0
   20.6793    0.5241   -9.8536 C   0  0  0  0  0  0  0  0  0  0  0  0
   21.8128    0.9090   -9.1469 C   0  0  0  0  0  0  0  0  0  0  0  0
   23.0543    0.5169   -9.5382 C   0  0  0  0  0  0  0  0  0  0  0  0
   23.1708   -0.2876  -10.6752 C   0  0  0  0  0  0  0  0  0  0  0  0
   24.4492   -0.6482  -11.0182 O   0  0  0  0  0  0  0  0  0  0  0  0
   25.5626   -0.5437  -10.1776 C   0  0  0  0  0  0  0  0  0  0  0  0
   25.7289   -1.4283   -9.1285 C   0  0  0  0  0  0  0  0  0  0  0  0
   26.8343   -1.3231   -8.2823 C   0  0  0  0  0  0  0  0  0  0  0  0
   26.9451   -2.2321   -7.2049 N   0  0  0  0  0  0  0  0  0  0  0  0
   27.7531   -0.3199   -8.5180 C   0  0  0  0  0  0  0  0  0  0  0  0
   27.5996    0.5796   -9.5693 C   0  0  0  0  0  0  0  0  0  0  0  0
   28.5005    1.5661   -9.7920 F   0  0  0  0  0  0  0  0  0  0  0  0
   26.4975    0.4614  -10.3993 C   0  0  0  0  0  0  0  0  0  0  0  0
   22.0712   -0.6749  -11.3723 C   0  0  0  0  0  0  0  0  0  0  0  0
   22.0770   -1.6077  -12.5212 C   0  0  2  0  0  0  0  0  0  0  0  0
   22.0112   -2.9208  -12.2745 F   0  0  0  0  0  0  0  0  0  0  0  0
   23.0967   -1.2853  -13.4322 F   0  0  0  0  0  0  0  0  0  0  0  0
   20.9053   -1.2637  -13.2514 F   0  0  0  0  0  0  0  0  0  0  0  0
   20.8144   -0.2550  -10.9463 C   0  0  0  0  0  0  0  0  0  0  0  0
  1  2  3  0
  2  3  1  0
  3  4  2  0
  4  5  1  0
  5  6  2  0
  6  7  1  0
  7  8  1  0
  8  9  2  0
  9 10  1  0
 10 11  1  0
 10 12  2  0
 12 13  1  0
 13 14  1  0
 13 15  2  0
  6 16  1  0
 16 17  1  0
 17 18  1  1
 17 19  1  0
 17 20  1  0
 16 21  2  0
 21  3  1  0
 15  8  1  0
M  END
$$$$
