_rank16
     RDKit          3D

 21 22  0  0  0  0  0  0  0  0999 V2000
   19.4410   -0.4953  -11.1912 N   0  0  0  0  0  0  0  0  0  0  0  0
   20.6147   -0.6013  -11.1332 C   0  0  0  0  0  0  0  0  0  0  0  0
   22.0375   -0.7248  -11.0392 C   0  0  0  0  0  0  0  0  0  0  0  0
   22.5479   -1.4470   -9.9667 C   0  0  0  0  0  0  0  0  0  0  0  0
   23.8876   -1.5993   -9.7933 C   0  0  0  0  0  0  0  0  0  0  0  0
   24.7503   -1.0102  -10.7219 C   0  0  0  0  0  0  0  0  0  0  0  0
   26.0892   -1.1992  -10.4908 O   0  0  0  0  0  0  0  0  0  0  0  0
   26.7898   -0.6956   -9.3895 C   0  0  0  0  0  0  0  0  0  0  0  0
   26.5238    0.5760   -8.9168 C   0  0  0  0  0  0  0  0  0  0  0  0
   27.2257    1.0858   -7.8231 C   0  0  0  0  0  0  0  0  0  0  0  0
   26.9395    2.4027   -7.3952 N   0  0  0  0  0  0  0  0  0  0  0  0
   28.1864    0.2931   -7.2274 C   0  0  0  0  0  0  0  0  0  0  0  0
   28.4670   -0.9889   -7.6918 C   0  0  0  0  0  0  0  0  0  0  0  0
   29.4152   -1.7598   -7.1078 F   0  0  0  0  0  0  0  0  0  0  0  0
   27.7617   -1.4795   -8.7777 C   0  0  0  0  0  0  0  0  0  0  0  0
   24.2649   -0.3059  -11.7771 C   0  0  0  0  0  0  0  0  0  0  0  0
   25.0851    0.2643  -12.8691 C   0  0  2  0  0  0  0  0  0  0  0  0
   26.3504    0.6065  -12.6018 F   0  0  0  0  0  0  0  0  0  0  0  0
   24.3900    1.2770  -13.5509 F   0  0  0  0  0  0  0  0  0  0  0  0
   25.1326   -0.7721  -13.8428 F   0  0  0  0  0  0  0  0  0  0  0  0
   22.8879   -0.1672  -11.9253 C   0  0  0  0  0  0  0  0  0  0  0  0
  1  2  3  0
  2  3  1  0
  3  4  2  0
  4  5  1  0
  5  6  2  0
  6  7  1  0
  7  8  1  0
  8  9  2  0
  9 10  1  0
 10 11  1  0
 10 12  2  0
 12 13  1  0
 13 14  1  0
 13 15  2  0
  6 16  1  0
 16 17  1  0
 17 18  1  1
 17 19  1  0
 17 20  1  0
 16 21  2  0
 21  3  1  0
 15  8  1  0
M  END
$$$$
