_rank6
     RDKit          3D

 19 20  0  0  0  0  0  0  0  0999 V2000
   28.3385   -1.5207   -9.2624 C   0  0  0  0  0  0  0  0  0  0  0  0
   27.3378   -0.3041   -8.4043 S   0  0  1  0  0  6  0  0  0  0  0  0
   27.1771   -0.6997   -6.9763 O   0  0  0  0  0  0  0  0  0  0  0  0
   28.0458    1.0179   -8.5084 O   0  0  0  0  0  0  0  0  0  0  0  0
   25.8115   -0.2148   -9.2358 C   0  0  0  0  0  0  0  0  0  0  0  0
   24.6724   -0.6884   -8.6392 C   0  0  0  0  0  0  0  0  0  0  0  0
   23.4680   -0.5945   -9.3478 C   0  0  0  0  0  0  0  0  0  0  0  0
   23.4806   -0.0296  -10.6171 C   0  0  0  0  0  0  0  0  0  0  0  0
   22.3338    0.0991  -11.3764 O   0  0  0  0  0  0  0  0  0  0  0  0
   21.1669   -0.4996  -10.9542 C   0  0  0  0  0  0  0  0  0  0  0  0
   20.9090   -1.8241  -11.2374 C   0  0  0  0  0  0  0  0  0  0  0  0
   19.7359   -2.4444  -10.8166 C   0  0  0  0  0  0  0  0  0  0  0  0
   19.5030   -3.7475  -11.1062 F   0  0  0  0  0  0  0  0  0  0  0  0
   18.8348   -1.6837  -10.1022 C   0  0  0  0  0  0  0  0  0  0  0  0
   19.0745   -0.3387   -9.8025 C   0  0  0  0  0  0  0  0  0  0  0  0
   20.2527    0.2332  -10.2407 C   0  0  0  0  0  0  0  0  0  0  0  0
   20.5338    1.5817   -9.9337 N   0  0  0  0  0  0  0  0  0  0  0  0
   24.6347    0.4234  -11.1606 N   0  0  0  0  0  0  0  0  0  0  0  0
   25.7791    0.3369  -10.4923 C   0  0  0  0  0  0  0  0  0  0  0  0
  1  2  1  6
  2  3  2  0
  2  4  2  0
  2  5  1  6
  5  6  2  0
  6  7  1  0
  7  8  2  0
  8  9  1  0
  9 10  1  0
 10 11  2  0
 11 12  1  0
 12 13  1  0
 12 14  2  0
 14 15  1  0
 15 16  2  0
 16 17  1  0
  8 18  1  0
 18 19  2  0
 19  5  1  0
 16 10  1  0
M  END
$$$$
