_rank3
     RDKit          3D

 19 20  0  0  0  0  0  0  0  0999 V2000
   27.5626    1.0754   -7.7459 C   0  0  0  0  0  0  0  0  0  0  0  0
   27.2465   -0.4563   -8.6244 S   0  0  1  0  0  6  0  0  0  0  0  0
   28.4209   -0.8017   -9.4747 O   0  0  0  0  0  0  0  0  0  0  0  0
   27.0078   -1.5263   -7.5958 O   0  0  0  0  0  0  0  0  0  0  0  0
   25.8020   -0.2204   -9.5660 C   0  0  0  0  0  0  0  0  0  0  0  0
   25.8793    0.3134  -10.8257 C   0  0  0  0  0  0  0  0  0  0  0  0
   24.6895    0.4841  -11.5445 C   0  0  0  0  0  0  0  0  0  0  0  0
   23.4902    0.1076  -10.9529 C   0  0  0  0  0  0  0  0  0  0  0  0
   22.2766    0.2434  -11.5988 O   0  0  0  0  0  0  0  0  0  0  0  0
   21.1269   -0.2103  -10.9902 C   0  0  0  0  0  0  0  0  0  0  0  0
   20.8056   -1.5512  -10.9961 C   0  0  0  0  0  0  0  0  0  0  0  0
   19.6488   -2.0261  -10.3843 C   0  0  0  0  0  0  0  0  0  0  0  0
   19.3526   -3.3484  -10.4023 F   0  0  0  0  0  0  0  0  0  0  0  0
   18.8300   -1.1036   -9.7682 C   0  0  0  0  0  0  0  0  0  0  0  0
   19.1352    0.2612   -9.7488 C   0  0  0  0  0  0  0  0  0  0  0  0
   20.2940    0.6852  -10.3688 C   0  0  0  0  0  0  0  0  0  0  0  0
   20.6411    2.0530  -10.3458 N   0  0  0  0  0  0  0  0  0  0  0  0
   23.4697   -0.4157   -9.7046 N   0  0  0  0  0  0  0  0  0  0  0  0
   24.5952   -0.5797   -9.0191 C   0  0  0  0  0  0  0  0  0  0  0  0
  1  2  1  6
  2  3  2  0
  2  4  2  0
  2  5  1  6
  5  6  2  0
  6  7  1  0
  7  8  2  0
  8  9  1  0
  9 10  1  0
 10 11  2  0
 11 12  1  0
 12 13  1  0
 12 14  2  0
 14 15  1  0
 15 16  2  0
 16 17  1  0
  8 18  1  0
 18 19  2  0
 19  5  1  0
 16 10  1  0
M  END
$$$$
