_rank4
     RDKit          3D

 19 20  0  0  0  0  0  0  0  0999 V2000
   27.7725   -1.4734   -7.5542 C   0  0  0  0  0  0  0  0  0  0  0  0
   27.4353   -0.0683   -8.6172 S   0  0  1  0  0  6  0  0  0  0  0  0
   27.2852    1.1639   -7.7923 O   0  0  0  0  0  0  0  0  0  0  0  0
   28.5942    0.0699   -9.5648 O   0  0  0  0  0  0  0  0  0  0  0  0
   25.9901   -0.4371   -9.5141 C   0  0  0  0  0  0  0  0  0  0  0  0
   25.9973   -0.3896  -10.8836 C   0  0  0  0  0  0  0  0  0  0  0  0
   24.8101   -0.6945  -11.5610 C   0  0  0  0  0  0  0  0  0  0  0  0
   23.6836   -1.0292  -10.8199 C   0  0  0  0  0  0  0  0  0  0  0  0
   22.4777   -1.3437  -11.4157 O   0  0  0  0  0  0  0  0  0  0  0  0
   21.2995   -0.9758  -10.8036 C   0  0  0  0  0  0  0  0  0  0  0  0
   21.1713    0.2571  -10.1997 C   0  0  0  0  0  0  0  0  0  0  0  0
   19.9873    0.6448   -9.5785 C   0  0  0  0  0  0  0  0  0  0  0  0
   19.8835    1.8616   -8.9910 F   0  0  0  0  0  0  0  0  0  0  0  0
   18.9404   -0.2522   -9.5879 C   0  0  0  0  0  0  0  0  0  0  0  0
   19.0465   -1.5081  -10.1944 C   0  0  0  0  0  0  0  0  0  0  0  0
   20.2408   -1.8482  -10.7985 C   0  0  0  0  0  0  0  0  0  0  0  0
   20.3709   -3.0989  -11.4393 N   0  0  0  0  0  0  0  0  0  0  0  0
   23.7307   -1.0615   -9.4673 N   0  0  0  0  0  0  0  0  0  0  0  0
   24.8543   -0.7735   -8.8206 C   0  0  0  0  0  0  0  0  0  0  0  0
  1  2  1  6
  2  3  2  0
  2  4  2  0
  2  5  1  6
  5  6  2  0
  6  7  1  0
  7  8  2  0
  8  9  1  0
  9 10  1  0
 10 11  2  0
 11 12  1  0
 12 13  1  0
 12 14  2  0
 14 15  1  0
 15 16  2  0
 16 17  1  0
  8 18  1  0
 18 19  2  0
 19  5  1  0
 16 10  1  0
M  END
$$$$
