_rank14
     RDKit          3D

 19 20  0  0  0  0  0  0  0  0999 V2000
   27.8698   -1.8414  -10.0506 C   0  0  0  0  0  0  0  0  0  0  0  0
   27.4777   -0.5107   -8.9135 S   0  0  1  0  0  6  0  0  0  0  0  0
   27.7979   -0.9280   -7.5189 O   0  0  0  0  0  0  0  0  0  0  0  0
   28.3043    0.6808   -9.3098 O   0  0  0  0  0  0  0  0  0  0  0  0
   25.7890   -0.1417   -9.1162 C   0  0  0  0  0  0  0  0  0  0  0  0
   24.8455   -0.7962   -8.3684 C   0  0  0  0  0  0  0  0  0  0  0  0
   23.4993   -0.4648   -8.5672 C   0  0  0  0  0  0  0  0  0  0  0  0
   23.1810    0.5063   -9.5084 C   0  0  0  0  0  0  0  0  0  0  0  0
   21.8774    0.8881   -9.7596 O   0  0  0  0  0  0  0  0  0  0  0  0
   20.9655   -0.0486  -10.1946 C   0  0  0  0  0  0  0  0  0  0  0  0
   21.3824   -1.2745  -10.6684 C   0  0  0  0  0  0  0  0  0  0  0  0
   20.4739   -2.2325  -11.1100 C   0  0  0  0  0  0  0  0  0  0  0  0
   20.9060   -3.4310  -11.5718 F   0  0  0  0  0  0  0  0  0  0  0  0
   19.1342   -1.9113  -11.0570 C   0  0  0  0  0  0  0  0  0  0  0  0
   18.6874   -0.6746  -10.5801 C   0  0  0  0  0  0  0  0  0  0  0  0
   19.6259    0.2437  -10.1524 C   0  0  0  0  0  0  0  0  0  0  0  0
   19.2048    1.4912   -9.6440 N   0  0  0  0  0  0  0  0  0  0  0  0
   24.1529    1.1232  -10.2208 N   0  0  0  0  0  0  0  0  0  0  0  0
   25.4307    0.8126  -10.0356 C   0  0  0  0  0  0  0  0  0  0  0  0
  1  2  1  6
  2  3  2  0
  2  4  2  0
  2  5  1  1
  5  6  2  0
  6  7  1  0
  7  8  2  0
  8  9  1  0
  9 10  1  0
 10 11  2  0
 11 12  1  0
 12 13  1  0
 12 14  2  0
 14 15  1  0
 15 16  2  0
 16 17  1  0
  8 18  1  0
 18 19  2  0
 19  5  1  0
 16 10  1  0
M  END
$$$$
