_rank12
     RDKit          3D

 19 20  0  0  0  0  0  0  0  0999 V2000
   28.4259   -1.5108   -9.8693 C   0  0  0  0  0  0  0  0  0  0  0  0
   27.6564   -0.3835   -8.7054 S   0  0  1  0  0  6  0  0  0  0  0  0
   27.5747   -1.0237   -7.3618 O   0  0  0  0  0  0  0  0  0  0  0  0
   28.5054    0.8557   -8.6478 O   0  0  0  0  0  0  0  0  0  0  0  0
   26.0850    0.0155   -9.3381 C   0  0  0  0  0  0  0  0  0  0  0  0
   25.9249    1.1098  -10.1474 C   0  0  0  0  0  0  0  0  0  0  0  0
   24.6413    1.3902  -10.6321 C   0  0  0  0  0  0  0  0  0  0  0  0
   23.5925    0.5526  -10.2733 C   0  0  0  0  0  0  0  0  0  0  0  0
   22.2997    0.7629  -10.7124 O   0  0  0  0  0  0  0  0  0  0  0  0
   21.3820   -0.2624  -10.6431 C   0  0  0  0  0  0  0  0  0  0  0  0
   21.6726   -1.5077  -11.1589 C   0  0  0  0  0  0  0  0  0  0  0  0
   20.7571   -2.5546  -11.0954 C   0  0  0  0  0  0  0  0  0  0  0  0
   21.0639   -3.7706  -11.6090 F   0  0  0  0  0  0  0  0  0  0  0  0
   19.5420   -2.3019  -10.4951 C   0  0  0  0  0  0  0  0  0  0  0  0
   19.2247   -1.0472   -9.9644 C   0  0  0  0  0  0  0  0  0  0  0  0
   20.1651   -0.0396  -10.0505 C   0  0  0  0  0  0  0  0  0  0  0  0
   19.8833    1.2305   -9.5032 N   0  0  0  0  0  0  0  0  0  0  0  0
   23.8054   -0.5164   -9.4705 N   0  0  0  0  0  0  0  0  0  0  0  0
   25.0208   -0.7865   -9.0086 C   0  0  0  0  0  0  0  0  0  0  0  0
  1  2  1  6
  2  3  2  0
  2  4  2  0
  2  5  1  6
  5  6  2  0
  6  7  1  0
  7  8  2  0
  8  9  1  0
  9 10  1  0
 10 11  2  0
 11 12  1  0
 12 13  1  0
 12 14  2  0
 14 15  1  0
 15 16  2  0
 16 17  1  0
  8 18  1  0
 18 19  2  0
 19  5  1  0
 16 10  1  0
M  END
$$$$
