_rank18
     RDKit          3D

 19 20  0  0  0  0  0  0  0  0999 V2000
   28.3268    0.9318   -8.1037 C   0  0  0  0  0  0  0  0  0  0  0  0
   27.8073   -0.3674   -9.2261 S   0  0  1  0  0  6  0  0  0  0  0  0
   28.5104   -0.2172  -10.5318 O   0  0  0  0  0  0  0  0  0  0  0  0
   28.1570   -1.6827   -8.5877 O   0  0  0  0  0  0  0  0  0  0  0  0
   26.0796   -0.2420   -9.3935 C   0  0  0  0  0  0  0  0  0  0  0  0
   25.4827    0.9883   -9.4819 C   0  0  0  0  0  0  0  0  0  0  0  0
   24.0895    1.0382   -9.6155 C   0  0  0  0  0  0  0  0  0  0  0  0
   23.3775   -0.1543   -9.6518 C   0  0  0  0  0  0  0  0  0  0  0  0
   22.0027   -0.1866   -9.7832 O   0  0  0  0  0  0  0  0  0  0  0  0
   21.4226   -1.0876  -10.6491 C   0  0  0  0  0  0  0  0  0  0  0  0
   22.0117   -1.3845  -11.8600 C   0  0  0  0  0  0  0  0  0  0  0  0
   21.4394   -2.2938  -12.7454 C   0  0  0  0  0  0  0  0  0  0  0  0
   22.0357   -2.5705  -13.9303 F   0  0  0  0  0  0  0  0  0  0  0  0
   20.2557   -2.8911  -12.3674 C   0  0  0  0  0  0  0  0  0  0  0  0
   19.6398   -2.6063  -11.1444 C   0  0  0  0  0  0  0  0  0  0  0  0
   20.2451   -1.6978  -10.2987 C   0  0  0  0  0  0  0  0  0  0  0  0
   19.6601   -1.4074   -9.0475 N   0  0  0  0  0  0  0  0  0  0  0  0
   24.0169   -1.3440   -9.5607 N   0  0  0  0  0  0  0  0  0  0  0  0
   25.3378   -1.3964   -9.4341 C   0  0  0  0  0  0  0  0  0  0  0  0
  1  2  1  6
  2  3  2  0
  2  4  2  0
  2  5  1  6
  5  6  2  0
  6  7  1  0
  7  8  2  0
  8  9  1  0
  9 10  1  0
 10 11  2  0
 11 12  1  0
 12 13  1  0
 12 14  2  0
 14 15  1  0
 15 16  2  0
 16 17  1  0
  8 18  1  0
 18 19  2  0
 19  5  1  0
 16 10  1  0
M  END
$$$$
