_rank16
     RDKit          3D

 19 20  0  0  0  0  0  0  0  0999 V2000
   21.9206    0.6425  -13.1146 C   0  0  0  0  0  0  0  0  0  0  0  0
   22.6610   -0.6454  -13.0955 C   0  0  2  0  0  0  0  0  0  0  0  0
   21.8091   -1.6706  -13.6739 N   0  0  0  0  0  0  0  0  0  0  0  0
   23.1006   -1.1239  -11.7586 C   0  0  1  0  0  0  0  0  0  0  0  0
   24.1132   -0.2761  -11.3145 O   0  0  0  0  0  0  0  0  0  0  0  0
   25.3195   -0.5870  -10.7454 C   0  0  0  0  0  0  0  0  0  0  0  0
   26.1507   -1.5486  -11.2540 C   0  0  0  0  0  0  0  0  0  0  0  0
   27.3641   -1.8047  -10.6132 C   0  0  0  0  0  0  0  0  0  0  0  0
   28.1820   -2.7698  -11.1366 F   0  0  0  0  0  0  0  0  0  0  0  0
   27.7631   -1.1269   -9.4841 C   0  0  0  0  0  0  0  0  0  0  0  0
   26.8965   -0.1629   -9.0004 C   0  0  0  0  0  0  0  0  0  0  0  0
   27.2439    0.5989   -7.8101 C   0  0  0  0  0  0  0  0  0  0  0  0
   27.5363    1.1956   -6.8509 N   0  0  0  0  0  0  0  0  0  0  0  0
   25.7013    0.1172   -9.5979 C   0  0  0  0  0  0  0  0  0  0  0  0
   21.9932   -1.1394  -10.7464 C   0  0  0  0  0  0  0  0  0  0  0  0
   21.4222   -0.0659  -10.2158 C   0  0  0  0  0  0  0  0  0  0  0  0
   20.3972   -0.2388   -9.2774 C   0  0  0  0  0  0  0  0  0  0  0  0
   20.2694   -2.0305   -9.1721 S   0  0  0  0  0  0  0  0  0  0  0  0
   21.5468   -2.4160  -10.3455 C   0  0  0  0  0  0  0  0  0  0  0  0
  1  2  1  6
  2  3  1  1
  2  4  1  0
  4  5  1  1
  5  6  1  0
  6  7  2  0
  7  8  1  0
  8  9  1  0
  8 10  2  0
 10 11  1  0
 11 12  1  0
 12 13  3  0
 11 14  2  0
  4 15  1  0
 15 16  1  0
 16 17  2  0
 17 18  1  0
 18 19  1  0
 14  6  1  0
 19 15  2  0
M  END
$$$$
