_rank3
     RDKit          3D

 19 20  0  0  0  0  0  0  0  0999 V2000
   26.6434    1.1010  -12.2007 C   0  0  0  0  0  0  0  0  0  0  0  0
   25.4389    0.2848  -12.5013 C   0  0  2  0  0  0  0  0  0  0  0  0
   24.9009    0.7182  -13.7795 N   0  0  0  0  0  0  0  0  0  0  0  0
   24.3407    0.3524  -11.5020 C   0  0  1  0  0  0  0  0  0  0  0  0
   23.3501   -0.5447  -11.8962 O   0  0  0  0  0  0  0  0  0  0  0  0
   22.0931   -0.7309  -11.3853 C   0  0  0  0  0  0  0  0  0  0  0  0
   21.4098   -1.9101  -11.5154 C   0  0  0  0  0  0  0  0  0  0  0  0
   20.1316   -2.0177  -10.9649 C   0  0  0  0  0  0  0  0  0  0  0  0
   19.4638   -3.2047  -11.1051 F   0  0  0  0  0  0  0  0  0  0  0  0
   19.5249   -0.9818  -10.2924 C   0  0  0  0  0  0  0  0  0  0  0  0
   20.2468    0.1932  -10.1817 C   0  0  0  0  0  0  0  0  0  0  0  0
   19.6764    1.3368   -9.4854 C   0  0  0  0  0  0  0  0  0  0  0  0
   19.2283    2.2662   -8.9403 N   0  0  0  0  0  0  0  0  0  0  0  0
   21.4990    0.3386  -10.7059 C   0  0  0  0  0  0  0  0  0  0  0  0
   24.7890    0.0098  -10.1117 C   0  0  0  0  0  0  0  0  0  0  0  0
   24.3516   -1.0169   -9.3944 C   0  0  0  0  0  0  0  0  0  0  0  0
   24.8637   -1.2086   -8.1051 C   0  0  0  0  0  0  0  0  0  0  0  0
   26.0211    0.1595   -7.9429 S   0  0  0  0  0  0  0  0  0  0  0  0
   25.7542    0.8710   -9.5491 C   0  0  0  0  0  0  0  0  0  0  0  0
  1  2  1  6
  2  3  1  6
  2  4  1  0
  4  5  1  6
  5  6  1  0
  6  7  2  0
  7  8  1  0
  8  9  1  0
  8 10  2  0
 10 11  1  0
 11 12  1  0
 12 13  3  0
 11 14  2  0
  4 15  1  0
 15 16  1  0
 16 17  2  0
 17 18  1  0
 18 19  1  0
 14  6  1  0
 19 15  2  0
M  END
$$$$
