_rank18
     RDKit          3D

 19 20  0  0  0  0  0  0  0  0999 V2000
   26.1060   -0.0758   -9.4131 C   0  0  0  0  0  0  0  0  0  0  0  0
   25.7177   -0.4177  -10.8059 C   0  0  2  0  0  0  0  0  0  0  0  0
   25.7360    0.8007  -11.5973 N   0  0  0  0  0  0  0  0  0  0  0  0
   24.3810   -1.0460  -10.9735 C   0  0  1  0  0  0  0  0  0  0  0  0
   23.4816   -0.3564  -10.1631 O   0  0  0  0  0  0  0  0  0  0  0  0
   22.1308   -0.5313  -10.0195 C   0  0  0  0  0  0  0  0  0  0  0  0
   21.5430   -1.7676  -10.0067 C   0  0  0  0  0  0  0  0  0  0  0  0
   20.1582   -1.8589   -9.8559 C   0  0  0  0  0  0  0  0  0  0  0  0
   19.5885   -3.1037   -9.8454 F   0  0  0  0  0  0  0  0  0  0  0  0
   19.3534   -0.7513   -9.7184 C   0  0  0  0  0  0  0  0  0  0  0  0
   19.9840    0.4800   -9.7362 C   0  0  0  0  0  0  0  0  0  0  0  0
   19.2043    1.7009   -9.5969 C   0  0  0  0  0  0  0  0  0  0  0  0
   18.5964    2.6904   -9.4830 N   0  0  0  0  0  0  0  0  0  0  0  0
   21.3352    0.6117   -9.8816 C   0  0  0  0  0  0  0  0  0  0  0  0
   23.8900   -1.0141  -12.3909 C   0  0  0  0  0  0  0  0  0  0  0  0
   23.3774   -2.0451  -13.0498 C   0  0  0  0  0  0  0  0  0  0  0  0
   22.9622   -1.8625  -14.3747 C   0  0  0  0  0  0  0  0  0  0  0  0
   23.3360   -0.1257  -14.6598 S   0  0  0  0  0  0  0  0  0  0  0  0
   23.9980    0.2287  -13.0493 C   0  0  0  0  0  0  0  0  0  0  0  0
  1  2  1  6
  2  3  1  6
  2  4  1  0
  4  5  1  1
  5  6  1  0
  6  7  2  0
  7  8  1  0
  8  9  1  0
  8 10  2  0
 10 11  1  0
 11 12  1  0
 12 13  3  0
 11 14  2  0
  4 15  1  0
 15 16  1  0
 16 17  2  0
 17 18  1  0
 18 19  1  0
 14  6  1  0
 19 15  2  0
M  END
$$$$
