_rank15
     RDKit          3D

 19 20  0  0  0  0  0  0  0  0999 V2000
   25.0257    0.2569  -14.4933 C   0  0  0  0  0  0  0  0  0  0  0  0
   24.1550    0.5557  -13.3270 C   0  0  2  0  0  0  0  0  0  0  0  0
   24.4644    1.8955  -12.8576 N   0  0  0  0  0  0  0  0  0  0  0  0
   24.2774   -0.3686  -12.1694 C   0  0  1  0  0  0  0  0  0  0  0  0
   25.3855    0.0273  -11.4233 O   0  0  0  0  0  0  0  0  0  0  0  0
   25.9938   -0.6021  -10.3700 C   0  0  0  0  0  0  0  0  0  0  0  0
   25.8544   -1.9427  -10.1298 C   0  0  0  0  0  0  0  0  0  0  0  0
   26.5086   -2.5070   -9.0334 C   0  0  0  0  0  0  0  0  0  0  0  0
   26.3573   -3.8492   -8.8093 F   0  0  0  0  0  0  0  0  0  0  0  0
   27.2933   -1.7681   -8.1780 C   0  0  0  0  0  0  0  0  0  0  0  0
   27.4098   -0.4174   -8.4536 C   0  0  0  0  0  0  0  0  0  0  0  0
   28.2213    0.4344   -7.5971 C   0  0  0  0  0  0  0  0  0  0  0  0
   28.8634    1.1090   -6.8939 N   0  0  0  0  0  0  0  0  0  0  0  0
   26.7862    0.1725   -9.5154 C   0  0  0  0  0  0  0  0  0  0  0  0
   23.0645   -0.3685  -11.2863 C   0  0  0  0  0  0  0  0  0  0  0  0
   22.8883    0.4052  -10.2231 C   0  0  0  0  0  0  0  0  0  0  0  0
   21.6991    0.2905   -9.4924 C   0  0  0  0  0  0  0  0  0  0  0  0
   20.8150   -0.9913  -10.3941 S   0  0  0  0  0  0  0  0  0  0  0  0
   22.0472   -1.2787  -11.6417 C   0  0  0  0  0  0  0  0  0  0  0  0
  1  2  1  6
  2  3  1  1
  2  4  1  0
  4  5  1  1
  5  6  1  0
  6  7  2  0
  7  8  1  0
  8  9  1  0
  8 10  2  0
 10 11  1  0
 11 12  1  0
 12 13  3  0
 11 14  2  0
  4 15  1  0
 15 16  1  0
 16 17  2  0
 17 18  1  0
 18 19  1  0
 14  6  1  0
 19 15  2  0
M  END
$$$$
