_rank9
     RDKit          3D

 19 20  0  0  0  0  0  0  0  0999 V2000
   20.2432    0.6262   -8.5517 C   0  0  0  0  0  0  0  0  0  0  0  0
   20.6945    1.3121   -9.7900 C   0  0  2  0  0  0  0  0  0  0  0  0
   19.5413    1.5019  -10.6532 N   0  0  0  0  0  0  0  0  0  0  0  0
   21.7397    0.6093  -10.5794 C   0  0  1  0  0  0  0  0  0  0  0  0
   22.8339    0.3966   -9.7435 O   0  0  0  0  0  0  0  0  0  0  0  0
   24.1443    0.1671  -10.0689 C   0  0  0  0  0  0  0  0  0  0  0  0
   24.5567   -0.0671  -11.3532 C   0  0  0  0  0  0  0  0  0  0  0  0
   25.9120   -0.2922  -11.6001 C   0  0  0  0  0  0  0  0  0  0  0  0
   26.3054   -0.5245  -12.8908 F   0  0  0  0  0  0  0  0  0  0  0  0
   26.8577   -0.2887  -10.6007 C   0  0  0  0  0  0  0  0  0  0  0  0
   26.4025   -0.0485   -9.3165 C   0  0  0  0  0  0  0  0  0  0  0  0
   27.3387   -0.0281   -8.2025 C   0  0  0  0  0  0  0  0  0  0  0  0
   28.1045   -0.0077   -7.3224 N   0  0  0  0  0  0  0  0  0  0  0  0
   25.0858    0.1761   -9.0336 C   0  0  0  0  0  0  0  0  0  0  0  0
   21.2760   -0.7084  -11.1271 C   0  0  0  0  0  0  0  0  0  0  0  0
   20.7456   -0.8972  -12.3284 C   0  0  0  0  0  0  0  0  0  0  0  0
   20.3567   -2.1900  -12.7006 C   0  0  0  0  0  0  0  0  0  0  0  0
   20.7829   -3.1553  -11.2432 S   0  0  0  0  0  0  0  0  0  0  0  0
   21.4288   -1.8171  -10.2687 C   0  0  0  0  0  0  0  0  0  0  0  0
  1  2  1  6
  2  3  1  6
  2  4  1  0
  4  5  1  1
  5  6  1  0
  6  7  2  0
  7  8  1  0
  8  9  1  0
  8 10  2  0
 10 11  1  0
 11 12  1  0
 12 13  3  0
 11 14  2  0
  4 15  1  0
 15 16  1  0
 16 17  2  0
 17 18  1  0
 18 19  1  0
 14  6  1  0
 19 15  2  0
M  END
$$$$
