_rank14
     RDKit          3D

 19 20  0  0  0  0  0  0  0  0999 V2000
   25.8454    0.6246  -14.2434 C   0  0  0  0  0  0  0  0  0  0  0  0
   24.5735    0.7658  -13.4887 C   0  0  2  0  0  0  0  0  0  0  0  0
   24.4737    2.1354  -13.0139 N   0  0  0  0  0  0  0  0  0  0  0  0
   24.4092   -0.1326  -12.3159 C   0  0  1  0  0  0  0  0  0  0  0  0
   25.4901    0.0788  -11.4626 O   0  0  0  0  0  0  0  0  0  0  0  0
   25.5594   -0.0464  -10.1005 C   0  0  0  0  0  0  0  0  0  0  0  0
   24.5522   -0.6008   -9.3572 C   0  0  0  0  0  0  0  0  0  0  0  0
   24.7019   -0.6912   -7.9723 C   0  0  0  0  0  0  0  0  0  0  0  0
   23.6841   -1.2486   -7.2459 F   0  0  0  0  0  0  0  0  0  0  0  0
   25.8266   -0.2438   -7.3180 C   0  0  0  0  0  0  0  0  0  0  0  0
   26.8222    0.3099   -8.1030 C   0  0  0  0  0  0  0  0  0  0  0  0
   28.0440    0.8072   -7.4883 C   0  0  0  0  0  0  0  0  0  0  0  0
   29.0334    1.1892   -7.0017 N   0  0  0  0  0  0  0  0  0  0  0  0
   26.7142    0.4166   -9.4598 C   0  0  0  0  0  0  0  0  0  0  0  0
   23.1340    0.1102  -11.5635 C   0  0  0  0  0  0  0  0  0  0  0  0
   22.8829    1.1634  -10.7968 C   0  0  0  0  0  0  0  0  0  0  0  0
   21.6422    1.2514  -10.1533 C   0  0  0  0  0  0  0  0  0  0  0  0
   20.8216   -0.2571  -10.6906 S   0  0  0  0  0  0  0  0  0  0  0  0
   22.1417   -0.8826  -11.7022 C   0  0  0  0  0  0  0  0  0  0  0  0
  1  2  1  6
  2  3  1  1
  2  4  1  0
  4  5  1  1
  5  6  1  0
  6  7  2  0
  7  8  1  0
  8  9  1  0
  8 10  2  0
 10 11  1  0
 11 12  1  0
 12 13  3  0
 11 14  2  0
  4 15  1  0
 15 16  1  0
 16 17  2  0
 17 18  1  0
 18 19  1  0
 14  6  1  0
 19 15  2  0
M  END
$$$$
