_rank17
     RDKit          3D

 19 20  0  0  0  0  0  0  0  0999 V2000
   22.6302   -0.1532  -13.5945 C   0  0  0  0  0  0  0  0  0  0  0  0
   22.8810   -1.4788  -12.9721 C   0  0  2  0  0  0  0  0  0  0  0  0
   21.6840   -2.2884  -13.1237 N   0  0  0  0  0  0  0  0  0  0  0  0
   23.2370   -1.4636  -11.5290 C   0  0  1  0  0  0  0  0  0  0  0  0
   24.3636   -0.6582  -11.3766 O   0  0  0  0  0  0  0  0  0  0  0  0
   25.3294   -0.6897  -10.4060 C   0  0  0  0  0  0  0  0  0  0  0  0
   25.5505   -1.7877   -9.6188 C   0  0  0  0  0  0  0  0  0  0  0  0
   26.5557   -1.7377   -8.6515 C   0  0  0  0  0  0  0  0  0  0  0  0
   26.7620   -2.8456   -7.8740 F   0  0  0  0  0  0  0  0  0  0  0  0
   27.3392   -0.6240   -8.4542 C   0  0  0  0  0  0  0  0  0  0  0  0
   27.0857    0.4652   -9.2687 C   0  0  0  0  0  0  0  0  0  0  0  0
   27.8700    1.6825   -9.1240 C   0  0  0  0  0  0  0  0  0  0  0  0
   28.4836    2.6692   -9.0162 N   0  0  0  0  0  0  0  0  0  0  0  0
   26.1122    0.4563  -10.2260 C   0  0  0  0  0  0  0  0  0  0  0  0
   22.1350   -0.9375  -10.6572 C   0  0  0  0  0  0  0  0  0  0  0  0
   21.9958    0.3244  -10.2723 C   0  0  0  0  0  0  0  0  0  0  0  0
   20.9127    0.6665   -9.4531 C   0  0  0  0  0  0  0  0  0  0  0  0
   20.0751   -0.9121   -9.2428 S   0  0  0  0  0  0  0  0  0  0  0  0
   21.1864   -1.8888  -10.2269 C   0  0  0  0  0  0  0  0  0  0  0  0
  1  2  1  6
  2  3  1  1
  2  4  1  0
  4  5  1  6
  5  6  1  0
  6  7  2  0
  7  8  1  0
  8  9  1  0
  8 10  2  0
 10 11  1  0
 11 12  1  0
 12 13  3  0
 11 14  2  0
  4 15  1  0
 15 16  1  0
 16 17  2  0
 17 18  1  0
 18 19  1  0
 14  6  1  0
 19 15  2  0
M  END
$$$$
