_rank2
     RDKit          3D

 16 17  0  0  0  0  0  0  0  0999 V2000
   18.7789    2.1341   -9.1737 N   0  0  0  0  0  0  0  0  0  0  0  0
   19.4411    1.2859   -9.6225 C   0  0  0  0  0  0  0  0  0  0  0  0
   20.2607    0.2431  -10.1992 C   0  0  0  0  0  0  0  0  0  0  0  0
   19.7083   -0.9958  -10.3982 C   0  0  0  0  0  0  0  0  0  0  0  0
   20.4682   -1.9907  -10.9415 C   0  0  0  0  0  0  0  0  0  0  0  0
   19.9153   -3.2038  -11.1325 F   0  0  0  0  0  0  0  0  0  0  0  0
   21.7815   -1.7175  -11.2771 C   0  0  0  0  0  0  0  0  0  0  0  0
   22.3748   -0.4898  -11.0945 C   0  0  0  0  0  0  0  0  0  0  0  0
   23.6783   -0.1802  -11.4160 O   0  0  0  0  0  0  0  0  0  0  0  0
   24.5781    0.4838  -10.6080 C   0  0  1  0  0  0  0  0  0  0  0  0
   25.2662   -0.5501   -9.6984 C   0  0  0  0  0  0  0  0  0  0  0  0
   26.3882   -1.0521  -10.4333 N   0  0  0  0  0  0  0  0  0  0  0  0
   26.4806   -0.3577  -11.6785 C   0  0  0  0  0  0  0  0  0  0  0  0
   25.8113    0.9661  -11.3818 C   0  0  2  0  0  0  0  0  0  0  0  0
   26.5861    1.7296  -10.5365 O   0  0  0  0  0  0  0  0  0  0  0  0
   21.5661    0.5087  -10.5347 C   0  0  0  0  0  0  0  0  0  0  0  0
  1  2  3  0
  2  3  1  0
  3  4  2  0
  4  5  1  0
  5  6  1  0
  5  7  2  0
  7  8  1  0
  8  9  1  0
 10  9  1  6
 10 11  1  0
 11 12  1  1
 13 12  1  6
 13 14  1  0
 14 15  1  1
  8 16  2  0
 16  3  1  0
 14 10  1  0
M  END
$$$$
