_rank1
     RDKit          3D

 16 17  0  0  0  0  0  0  0  0999 V2000
   18.8177    1.9880   -9.1787 N   0  0  0  0  0  0  0  0  0  0  0  0
   19.4776    1.1646   -9.6747 C   0  0  0  0  0  0  0  0  0  0  0  0
   20.3034    0.1372  -10.2698 C   0  0  0  0  0  0  0  0  0  0  0  0
   19.7770   -1.1177  -10.4364 C   0  0  0  0  0  0  0  0  0  0  0  0
   20.5432   -2.0986  -10.9964 C   0  0  0  0  0  0  0  0  0  0  0  0
   20.0159   -3.3276  -11.1553 F   0  0  0  0  0  0  0  0  0  0  0  0
   21.8361   -1.7951  -11.3815 C   0  0  0  0  0  0  0  0  0  0  0  0
   22.4030   -0.5504  -11.2326 C   0  0  0  0  0  0  0  0  0  0  0  0
   23.6857   -0.2108  -11.6036 O   0  0  0  0  0  0  0  0  0  0  0  0
   24.6253    0.4073  -10.8044 C   0  0  1  0  0  0  0  0  0  0  0  0
   25.2961   -0.6657   -9.9280 C   0  0  0  0  0  0  0  0  0  0  0  0
   26.3839   -1.1931  -10.6959 N   0  0  0  0  0  0  0  0  0  0  0  0
   26.4738   -0.4803  -11.9308 C   0  0  0  0  0  0  0  0  0  0  0  0
   25.8577    0.8603  -11.5970 C   0  0  2  0  0  0  0  0  0  0  0  0
   26.6766    1.5815  -10.7561 O   0  0  0  0  0  0  0  0  0  0  0  0
   21.5886    0.4328  -10.6544 C   0  0  0  0  0  0  0  0  0  0  0  0
  1  2  3  0
  2  3  1  0
  3  4  2  0
  4  5  1  0
  5  6  1  0
  5  7  2  0
  7  8  1  0
  8  9  1  0
 10  9  1  6
 10 11  1  0
 11 12  1  1
 13 12  1  6
 13 14  1  0
 14 15  1  1
  8 16  2  0
 16  3  1  0
 14 10  1  0
M  END
$$$$
