_rank20
     RDKit          3D

 16 17  0  0  0  0  0  0  0  0999 V2000
   18.6486    3.2073   -8.4813 N   0  0  0  0  0  0  0  0  0  0  0  0
   19.2932    2.3180   -8.8726 C   0  0  0  0  0  0  0  0  0  0  0  0
   20.0742    1.2048   -9.3650 C   0  0  0  0  0  0  0  0  0  0  0  0
   21.3242    0.9940   -8.8427 C   0  0  0  0  0  0  0  0  0  0  0  0
   22.0742   -0.0520   -9.2965 C   0  0  0  0  0  0  0  0  0  0  0  0
   23.3006   -0.2498   -8.7763 F   0  0  0  0  0  0  0  0  0  0  0  0
   21.5472   -0.8734  -10.2761 C   0  0  0  0  0  0  0  0  0  0  0  0
   20.2988   -0.6979  -10.8270 C   0  0  0  0  0  0  0  0  0  0  0  0
   19.7407   -1.4941  -11.8031 O   0  0  0  0  0  0  0  0  0  0  0  0
   20.3969   -2.4628  -12.5342 C   0  0  1  0  0  0  0  0  0  0  0  0
   20.1555   -3.8249  -11.8593 C   0  0  0  0  0  0  0  0  0  0  0  0
   18.9301   -4.3325  -12.3995 N   0  0  0  0  0  0  0  0  0  0  0  0
   18.4487   -3.4294  -13.3964 C   0  0  0  0  0  0  0  0  0  0  0  0
   19.7101   -2.7460  -13.8760 C   0  0  2  0  0  0  0  0  0  0  0  0
   20.4984   -3.6179  -14.5944 O   0  0  0  0  0  0  0  0  0  0  0  0
   19.5559    0.3855  -10.3382 C   0  0  0  0  0  0  0  0  0  0  0  0
  1  2  3  0
  2  3  1  0
  3  4  2  0
  4  5  1  0
  5  6  1  0
  5  7  2  0
  7  8  1  0
  8  9  1  0
 10  9  1  1
 10 11  1  0
 11 12  1  1
 13 12  1  6
 13 14  1  0
 14 15  1  6
  8 16  2  0
 16  3  1  0
 14 10  1  0
M  END
$$$$
