_rank14
     RDKit          3D

 16 17  0  0  0  0  0  0  0  0999 V2000
   20.0739   -4.4247   -9.7647 N   0  0  0  0  0  0  0  0  0  0  0  0
   20.6108   -3.4317  -10.0562 C   0  0  0  0  0  0  0  0  0  0  0  0
   21.2664   -2.2002  -10.4375 C   0  0  0  0  0  0  0  0  0  0  0  0
   20.4951   -1.1351  -10.8253 C   0  0  0  0  0  0  0  0  0  0  0  0
   21.0981    0.0341  -11.1881 C   0  0  0  0  0  0  0  0  0  0  0  0
   20.3307    1.0738  -11.5674 F   0  0  0  0  0  0  0  0  0  0  0  0
   22.4783    0.1101  -11.1535 C   0  0  0  0  0  0  0  0  0  0  0  0
   23.2893   -0.9335  -10.7712 C   0  0  0  0  0  0  0  0  0  0  0  0
   24.6657   -0.8956  -10.7240 O   0  0  0  0  0  0  0  0  0  0  0  0
   25.4458    0.2418  -10.6854 C   0  0  1  0  0  0  0  0  0  0  0  0
   26.2538    0.2301   -9.3753 C   0  0  0  0  0  0  0  0  0  0  0  0
   27.4505   -0.5090   -9.6447 N   0  0  0  0  0  0  0  0  0  0  0  0
   27.4699   -0.8816  -11.0238 C   0  0  0  0  0  0  0  0  0  0  0  0
   26.6144    0.1813  -11.6769 C   0  0  2  0  0  0  0  0  0  0  0  0
   27.2558    1.4005  -11.6704 O   0  0  0  0  0  0  0  0  0  0  0  0
   22.6373   -2.1189  -10.4050 C   0  0  0  0  0  0  0  0  0  0  0  0
  1  2  3  0
  2  3  1  0
  3  4  2  0
  4  5  1  0
  5  6  1  0
  5  7  2  0
  7  8  1  0
  8  9  1  0
 10  9  1  1
 10 11  1  0
 11 12  1  1
 13 12  1  6
 13 14  1  0
 14 15  1  1
  8 16  2  0
 16  3  1  0
 14 10  1  0
M  END
$$$$
