_rank7
     RDKit          3D

 16 17  0  0  0  0  0  0  0  0999 V2000
   28.2776    0.4047   -7.1499 N   0  0  0  0  0  0  0  0  0  0  0  0
   27.6237    0.2524   -8.1031 C   0  0  0  0  0  0  0  0  0  0  0  0
   26.8262    0.0474   -9.2921 C   0  0  0  0  0  0  0  0  0  0  0  0
   27.4429    0.0935  -10.5158 C   0  0  0  0  0  0  0  0  0  0  0  0
   26.7047   -0.0979  -11.6476 C   0  0  0  0  0  0  0  0  0  0  0  0
   27.3208   -0.0505  -12.8443 F   0  0  0  0  0  0  0  0  0  0  0  0
   25.3478   -0.3341  -11.5254 C   0  0  0  0  0  0  0  0  0  0  0  0
   24.6897   -0.3885  -10.3184 C   0  0  0  0  0  0  0  0  0  0  0  0
   23.3414   -0.6212  -10.1571 O   0  0  0  0  0  0  0  0  0  0  0  0
   22.3626   -0.4164  -11.1077 C   0  0  1  0  0  0  0  0  0  0  0  0
   21.9762   -1.7810  -11.7061 C   0  0  0  0  0  0  0  0  0  0  0  0
   20.9557   -2.3201  -10.8582 N   0  0  0  0  0  0  0  0  0  0  0  0
   20.6399   -1.3669   -9.8419 C   0  0  0  0  0  0  0  0  0  0  0  0
   21.0111   -0.0481  -10.4833 C   0  0  2  0  0  0  0  0  0  0  0  0
   20.1339    0.2692  -11.4970 O   0  0  0  0  0  0  0  0  0  0  0  0
   25.4777   -0.1877   -9.1769 C   0  0  0  0  0  0  0  0  0  0  0  0
  1  2  3  0
  2  3  1  0
  3  4  2  0
  4  5  1  0
  5  6  1  0
  5  7  2  0
  7  8  1  0
  8  9  1  0
 10  9  1  1
 10 11  1  0
 11 12  1  1
 13 12  1  6
 13 14  1  0
 14 15  1  6
  8 16  2  0
 16  3  1  0
 14 10  1  0
M  END
$$$$
