_rank11
     RDKit          3D

 16 17  0  0  0  0  0  0  0  0999 V2000
   27.9139    0.2892   -6.7623 N   0  0  0  0  0  0  0  0  0  0  0  0
   27.3683    0.1472   -7.7829 C   0  0  0  0  0  0  0  0  0  0  0  0
   26.6935   -0.0511   -9.0467 C   0  0  0  0  0  0  0  0  0  0  0  0
   27.4466   -0.1498  -10.1881 C   0  0  0  0  0  0  0  0  0  0  0  0
   26.8252   -0.3370  -11.3887 C   0  0  0  0  0  0  0  0  0  0  0  0
   27.5748   -0.4326  -12.5035 F   0  0  0  0  0  0  0  0  0  0  0  0
   25.4454   -0.4220  -11.4181 C   0  0  0  0  0  0  0  0  0  0  0  0
   24.6524   -0.3282  -10.2977 C   0  0  0  0  0  0  0  0  0  0  0  0
   23.2770   -0.4079  -10.2875 O   0  0  0  0  0  0  0  0  0  0  0  0
   22.4999   -1.1446  -11.1576 C   0  0  1  0  0  0  0  0  0  0  0  0
   22.1922   -2.5023  -10.5007 C   0  0  0  0  0  0  0  0  0  0  0  0
   21.0156   -2.3103   -9.7072 N   0  0  0  0  0  0  0  0  0  0  0  0
   20.5434   -0.9738   -9.8862 C   0  0  0  0  0  0  0  0  0  0  0  0
   21.0668   -0.6074  -11.2573 C   0  0  2  0  0  0  0  0  0  0  0  0
   20.4046   -1.3102  -12.2398 O   0  0  0  0  0  0  0  0  0  0  0  0
   25.3229   -0.1363   -9.0820 C   0  0  0  0  0  0  0  0  0  0  0  0
  1  2  3  0
  2  3  1  0
  3  4  2  0
  4  5  1  0
  5  6  1  0
  5  7  2  0
  7  8  1  0
  8  9  1  0
 10  9  1  1
 10 11  1  0
 11 12  1  1
 13 12  1  6
 13 14  1  0
 14 15  1  6
  8 16  2  0
 16  3  1  0
 14 10  1  0
M  END
$$$$
