_rank5
     RDKit          3D

 16 17  0  0  0  0  0  0  0  0999 V2000
   18.7671    1.3193   -8.4070 N   0  0  0  0  0  0  0  0  0  0  0  0
   19.5684    0.7365   -9.0215 C   0  0  0  0  0  0  0  0  0  0  0  0
   20.5544    0.0226   -9.8025 C   0  0  0  0  0  0  0  0  0  0  0  0
   20.1300   -0.7545  -10.8493 C   0  0  0  0  0  0  0  0  0  0  0  0
   21.0477   -1.4346  -11.5962 C   0  0  0  0  0  0  0  0  0  0  0  0
   20.6196   -2.1949  -12.6220 F   0  0  0  0  0  0  0  0  0  0  0  0
   22.3871   -1.3187  -11.2725 C   0  0  0  0  0  0  0  0  0  0  0  0
   22.8556   -0.5508  -10.2316 C   0  0  0  0  0  0  0  0  0  0  0  0
   24.1801   -0.4109   -9.8793 O   0  0  0  0  0  0  0  0  0  0  0  0
   25.2536   -1.0164  -10.4995 C   0  0  1  0  0  0  0  0  0  0  0  0
   25.6335   -0.1802  -11.7347 C   0  0  0  0  0  0  0  0  0  0  0  0
   26.5429    0.8271  -11.2771 N   0  0  0  0  0  0  0  0  0  0  0  0
   26.8027    0.6262   -9.8867 C   0  0  0  0  0  0  0  0  0  0  0  0
   26.5544   -0.8547   -9.7033 C   0  0  2  0  0  0  0  0  0  0  0  0
   27.5380   -1.5975  -10.3186 O   0  0  0  0  0  0  0  0  0  0  0  0
   21.8864    0.1339   -9.4857 C   0  0  0  0  0  0  0  0  0  0  0  0
  1  2  3  0
  2  3  1  0
  3  4  2  0
  4  5  1  0
  5  6  1  0
  5  7  2  0
  7  8  1  0
  8  9  1  0
 10  9  1  1
 10 11  1  0
 11 12  1  1
 13 12  1  6
 13 14  1  0
 14 15  1  6
  8 16  2  0
 16  3  1  0
 14 10  1  0
M  END
$$$$
