_rank17
     RDKit          3D

 16 17  0  0  0  0  0  0  0  0999 V2000
   19.6857   -3.0503   -8.1247 N   0  0  0  0  0  0  0  0  0  0  0  0
   20.2997   -2.6195   -9.0174 C   0  0  0  0  0  0  0  0  0  0  0  0
   21.0498   -2.0661  -10.1233 C   0  0  0  0  0  0  0  0  0  0  0  0
   20.3788   -1.7199  -11.2677 C   0  0  0  0  0  0  0  0  0  0  0  0
   21.0718   -1.1965  -12.3204 C   0  0  0  0  0  0  0  0  0  0  0  0
   20.4025   -0.8600  -13.4396 F   0  0  0  0  0  0  0  0  0  0  0  0
   22.4392   -1.0298  -12.2004 C   0  0  0  0  0  0  0  0  0  0  0  0
   23.1511   -1.3635  -11.0714 C   0  0  0  0  0  0  0  0  0  0  0  0
   24.5115   -1.2123  -10.9149 O   0  0  0  0  0  0  0  0  0  0  0  0
   25.2652   -0.1426  -11.3523 C   0  0  1  0  0  0  0  0  0  0  0  0
   25.5765    0.7568  -10.1425 C   0  0  0  0  0  0  0  0  0  0  0  0
   26.7706    0.2358   -9.5477 N   0  0  0  0  0  0  0  0  0  0  0  0
   27.2486   -0.8553  -10.3365 C   0  0  0  0  0  0  0  0  0  0  0  0
   26.6998   -0.5483  -11.7123 C   0  0  2  0  0  0  0  0  0  0  0  0
   27.3366    0.5420  -12.2631 O   0  0  0  0  0  0  0  0  0  0  0  0
   22.4084   -1.8982  -10.0098 C   0  0  0  0  0  0  0  0  0  0  0  0
  1  2  3  0
  2  3  1  0
  3  4  2  0
  4  5  1  0
  5  6  1  0
  5  7  2  0
  7  8  1  0
  8  9  1  0
 10  9  1  1
 10 11  1  0
 11 12  1  1
 13 12  1  6
 13 14  1  0
 14 15  1  1
  8 16  2  0
 16  3  1  0
 14 10  1  0
M  END
$$$$
