_rank4
     RDKit          3D

 16 17  0  0  0  0  0  0  0  0999 V2000
   18.7861   -3.8906  -11.0242 N   0  0  0  0  0  0  0  0  0  0  0  0
   19.3594   -2.8894  -10.8557 C   0  0  0  0  0  0  0  0  0  0  0  0
   20.0765   -1.6475  -10.6682 C   0  0  0  0  0  0  0  0  0  0  0  0
   19.3742   -0.5301  -10.2965 C   0  0  0  0  0  0  0  0  0  0  0  0
   20.0359    0.6497  -10.1155 C   0  0  0  0  0  0  0  0  0  0  0  0
   19.3360    1.7409   -9.7504 F   0  0  0  0  0  0  0  0  0  0  0  0
   21.4039    0.6829  -10.3136 C   0  0  0  0  0  0  0  0  0  0  0  0
   22.1466   -0.4136  -10.6864 C   0  0  0  0  0  0  0  0  0  0  0  0
   23.5087   -0.4192  -10.8929 O   0  0  0  0  0  0  0  0  0  0  0  0
   24.3860    0.5892  -10.5507 C   0  0  1  0  0  0  0  0  0  0  0  0
   25.3536    0.0473   -9.4832 C   0  0  0  0  0  0  0  0  0  0  0  0
   26.4338   -0.5699  -10.1925 N   0  0  0  0  0  0  0  0  0  0  0  0
   26.2397   -0.3830  -11.5956 C   0  0  0  0  0  0  0  0  0  0  0  0
   25.4051    0.8770  -11.6601 C   0  0  2  0  0  0  0  0  0  0  0  0
   26.1486    1.9778  -11.2950 O   0  0  0  0  0  0  0  0  0  0  0  0
   21.4356   -1.6084  -10.8636 C   0  0  0  0  0  0  0  0  0  0  0  0
  1  2  3  0
  2  3  1  0
  3  4  2  0
  4  5  1  0
  5  6  1  0
  5  7  2  0
  7  8  1  0
  8  9  1  0
 10  9  1  6
 10 11  1  0
 11 12  1  1
 13 12  1  6
 13 14  1  0
 14 15  1  1
  8 16  2  0
 16  3  1  0
 14 10  1  0
M  END
$$$$
