_rank16
     RDKit          3D

 17 18  0  0  0  0  0  0  0  0999 V2000
   22.3783   -1.1519   -6.4592 N   0  0  0  0  0  0  0  0  0  0  0  0
   22.3932   -1.1702   -7.6244 C   0  0  0  0  0  0  0  0  0  0  0  0
   22.4276   -1.2070   -9.0610 C   0  0  0  0  0  0  0  0  0  0  0  0
   21.3992   -1.8005   -9.7311 C   0  0  0  0  0  0  0  0  0  0  0  0
   21.3763   -1.8665  -11.1059 C   0  0  0  0  0  0  0  0  0  0  0  0
   20.3772   -2.4449  -11.8059 F   0  0  0  0  0  0  0  0  0  0  0  0
   22.4325   -1.3113  -11.8185 C   0  0  0  0  0  0  0  0  0  0  0  0
   23.4841   -0.7062  -11.1764 C   0  0  0  0  0  0  0  0  0  0  0  0
   24.5210   -0.1600  -11.8456 O   0  0  0  0  0  0  0  0  0  0  0  0
   25.7279    0.3432  -11.4202 C   0  0  2  0  0  0  0  0  0  0  0  0
   25.8644    1.8400  -11.5528 C   0  0  0  0  0  0  0  0  0  0  0  0
   26.6277    2.0776  -12.6952 O   0  0  0  0  0  0  0  0  0  0  0  0
   27.6374    1.1197  -12.6521 C   0  0  0  0  0  0  0  0  0  0  0  0
   26.8630   -0.1350  -12.3040 C   0  0  1  0  0  0  0  0  0  0  0  0
   27.7352   -0.9591  -11.6113 F   0  0  0  0  0  0  0  0  0  0  0  0
   26.4157   -0.7431  -13.4459 F   0  0  0  0  0  0  0  0  0  0  0  0
   23.4725   -0.6579   -9.7700 C   0  0  0  0  0  0  0  0  0  0  0  0
  1  2  3  0
  2  3  1  0
  3  4  2  0
  4  5  1  0
  5  6  1  0
  5  7  2  0
  7  8  1  0
  8  9  1  0
 10  9  1  6
 10 11  1  0
 11 12  1  1
 13 12  1  6
 13 14  1  0
 14 15  1  1
 14 16  1  0
  8 17  2  0
 17  3  1  0
 14 10  1  0
M  END
$$$$
