_rank14
     RDKit          3D

 17 18  0  0  0  0  0  0  0  0999 V2000
   19.3114   -2.2483   -9.1866 N   0  0  0  0  0  0  0  0  0  0  0  0
   20.2773   -1.9149   -9.7471 C   0  0  0  0  0  0  0  0  0  0  0  0
   21.4569   -1.4990  -10.4556 C   0  0  0  0  0  0  0  0  0  0  0  0
   21.4041   -1.3789  -11.8127 C   0  0  0  0  0  0  0  0  0  0  0  0
   22.5007   -0.9848  -12.5455 C   0  0  0  0  0  0  0  0  0  0  0  0
   22.4890   -0.8540  -13.8892 F   0  0  0  0  0  0  0  0  0  0  0  0
   23.6859   -0.7050  -11.8755 C   0  0  0  0  0  0  0  0  0  0  0  0
   23.7746   -0.8155  -10.5101 C   0  0  0  0  0  0  0  0  0  0  0  0
   24.9135   -0.5496   -9.8367 O   0  0  0  0  0  0  0  0  0  0  0  0
   26.1622   -0.1584  -10.2592 C   0  0  2  0  0  0  0  0  0  0  0  0
   27.0021   -1.2677  -10.8430 C   0  0  0  0  0  0  0  0  0  0  0  0
   27.9033   -1.6575   -9.8530 O   0  0  0  0  0  0  0  0  0  0  0  0
   28.3305   -0.4654   -9.2738 C   0  0  0  0  0  0  0  0  0  0  0  0
   27.0238    0.2790   -9.0909 C   0  0  1  0  0  0  0  0  0  0  0  0
   27.3249    1.6297   -9.1581 F   0  0  0  0  0  0  0  0  0  0  0  0
   26.4664   -0.0402   -7.8822 F   0  0  0  0  0  0  0  0  0  0  0  0
   22.6325   -1.2211   -9.7948 C   0  0  0  0  0  0  0  0  0  0  0  0
  1  2  3  0
  2  3  1  0
  3  4  2  0
  4  5  1  0
  5  6  1  0
  5  7  2  0
  7  8  1  0
  8  9  1  0
 10  9  1  1
 10 11  1  0
 11 12  1  1
 13 12  1  6
 13 14  1  0
 14 15  1  1
 14 16  1  0
  8 17  2  0
 17  3  1  0
 14 10  1  0
M  END
$$$$
