_rank10
     RDKit          3D

 17 18  0  0  0  0  0  0  0  0999 V2000
   27.9408    0.5215   -8.0495 N   0  0  0  0  0  0  0  0  0  0  0  0
   27.1059    0.0373   -8.7028 C   0  0  0  0  0  0  0  0  0  0  0  0
   26.0911   -0.5669   -9.5222 C   0  0  0  0  0  0  0  0  0  0  0  0
   26.4691   -1.3073  -10.6028 C   0  0  0  0  0  0  0  0  0  0  0  0
   25.5434   -1.9100  -11.4243 C   0  0  0  0  0  0  0  0  0  0  0  0
   25.8770   -2.6504  -12.5028 F   0  0  0  0  0  0  0  0  0  0  0  0
   24.1929   -1.7536  -11.1358 C   0  0  0  0  0  0  0  0  0  0  0  0
   23.7767   -1.0151  -10.0560 C   0  0  0  0  0  0  0  0  0  0  0  0
   22.4718   -0.8483   -9.7550 O   0  0  0  0  0  0  0  0  0  0  0  0
   21.3314   -0.9531  -10.5160 C   0  0  2  0  0  0  0  0  0  0  0  0
   21.0266    0.2609  -11.3586 C   0  0  0  0  0  0  0  0  0  0  0  0
   20.0310    0.9759  -10.6939 O   0  0  0  0  0  0  0  0  0  0  0  0
   19.1480    0.0047  -10.2290 C   0  0  0  0  0  0  0  0  0  0  0  0
   20.0942   -1.0228   -9.6425 C   0  0  1  0  0  0  0  0  0  0  0  0
   19.4622   -2.2509   -9.7519 F   0  0  0  0  0  0  0  0  0  0  0  0
   20.3609   -0.7229   -8.3338 F   0  0  0  0  0  0  0  0  0  0  0  0
   24.7523   -0.4138   -9.2391 C   0  0  0  0  0  0  0  0  0  0  0  0
  1  2  3  0
  2  3  1  0
  3  4  2  0
  4  5  1  0
  5  6  1  0
  5  7  2  0
  7  8  1  0
  8  9  1  0
 10  9  1  1
 10 11  1  0
 11 12  1  1
 13 12  1  6
 13 14  1  0
 14 15  1  1
 14 16  1  0
  8 17  2  0
 17  3  1  0
 14 10  1  0
M  END
$$$$
