_rank4
     RDKit          3D

 17 18  0  0  0  0  0  0  0  0999 V2000
   19.2696   -3.6638  -11.5061 N   0  0  0  0  0  0  0  0  0  0  0  0
   19.8980   -2.7230  -11.2262 C   0  0  0  0  0  0  0  0  0  0  0  0
   20.6577   -1.5567  -10.8672 C   0  0  0  0  0  0  0  0  0  0  0  0
   19.9959   -0.3987  -10.5847 C   0  0  0  0  0  0  0  0  0  0  0  0
   20.6687    0.7502  -10.2349 C   0  0  0  0  0  0  0  0  0  0  0  0
   20.0505    1.9156   -9.9482 F   0  0  0  0  0  0  0  0  0  0  0  0
   22.0567    0.7178  -10.1713 C   0  0  0  0  0  0  0  0  0  0  0  0
   22.7552   -0.4307  -10.4493 C   0  0  0  0  0  0  0  0  0  0  0  0
   24.1025   -0.4876  -10.3944 O   0  0  0  0  0  0  0  0  0  0  0  0
   25.0684    0.4878  -10.4728 C   0  0  2  0  0  0  0  0  0  0  0  0
   25.5983    0.7345  -11.8639 C   0  0  0  0  0  0  0  0  0  0  0  0
   26.8264    0.0800  -11.9517 O   0  0  0  0  0  0  0  0  0  0  0  0
   27.4508    0.3336  -10.7331 C   0  0  0  0  0  0  0  0  0  0  0  0
   26.3316    0.0676   -9.7473 C   0  0  1  0  0  0  0  0  0  0  0  0
   26.5763    0.8700   -8.6447 F   0  0  0  0  0  0  0  0  0  0  0  0
   26.3179   -1.2559   -9.3980 F   0  0  0  0  0  0  0  0  0  0  0  0
   22.0329   -1.5855  -10.8032 C   0  0  0  0  0  0  0  0  0  0  0  0
  1  2  3  0
  2  3  1  0
  3  4  2  0
  4  5  1  0
  5  6  1  0
  5  7  2  0
  7  8  1  0
  8  9  1  0
 10  9  1  6
 10 11  1  0
 11 12  1  1
 13 12  1  6
 13 14  1  0
 14 15  1  1
 14 16  1  0
  8 17  2  0
 17  3  1  0
 14 10  1  0
M  END
$$$$
