_rank20
     RDKit          3D

 17 18  0  0  0  0  0  0  0  0999 V2000
   29.2891    0.1038   -7.8733 N   0  0  0  0  0  0  0  0  0  0  0  0
   28.1481    0.0585   -8.1064 C   0  0  0  0  0  0  0  0  0  0  0  0
   26.7446    0.0105   -8.4133 C   0  0  0  0  0  0  0  0  0  0  0  0
   25.8422    0.1461   -7.4004 C   0  0  0  0  0  0  0  0  0  0  0  0
   24.4858    0.1085   -7.6323 C   0  0  0  0  0  0  0  0  0  0  0  0
   23.5610    0.2388   -6.6574 F   0  0  0  0  0  0  0  0  0  0  0  0
   24.0361   -0.0725   -8.9349 C   0  0  0  0  0  0  0  0  0  0  0  0
   24.9165   -0.2125   -9.9787 C   0  0  0  0  0  0  0  0  0  0  0  0
   24.5050   -0.3894  -11.2518 O   0  0  0  0  0  0  0  0  0  0  0  0
   23.2644   -0.3015  -11.8382 C   0  0  2  0  0  0  0  0  0  0  0  0
   22.4045   -1.5302  -11.6723 C   0  0  0  0  0  0  0  0  0  0  0  0
   22.4740   -2.2383  -12.8715 O   0  0  0  0  0  0  0  0  0  0  0  0
   22.4033   -1.2633  -13.8631 C   0  0  0  0  0  0  0  0  0  0  0  0
   23.3764   -0.2226  -13.3481 C   0  0  1  0  0  0  0  0  0  0  0  0
   22.9381    1.0010  -13.8279 F   0  0  0  0  0  0  0  0  0  0  0  0
   24.6406   -0.5003  -13.7935 F   0  0  0  0  0  0  0  0  0  0  0  0
   26.2958   -0.1688   -9.7027 C   0  0  0  0  0  0  0  0  0  0  0  0
  1  2  3  0
  2  3  1  0
  3  4  2  0
  4  5  1  0
  5  6  1  0
  5  7  2  0
  7  8  1  0
  8  9  1  0
 10  9  1  1
 10 11  1  0
 11 12  1  1
 13 12  1  6
 13 14  1  0
 14 15  1  6
 14 16  1  0
  8 17  2  0
 17  3  1  0
 14 10  1  0
M  END
$$$$
