_rank7
     RDKit          3D

 17 18  0  0  0  0  0  0  0  0999 V2000
   18.7429    0.4961   -8.4922 N   0  0  0  0  0  0  0  0  0  0  0  0
   19.6214    0.0547   -9.1181 C   0  0  0  0  0  0  0  0  0  0  0  0
   20.7185   -0.4839   -9.8747 C   0  0  0  0  0  0  0  0  0  0  0  0
   20.4552   -1.1669  -11.0249 C   0  0  0  0  0  0  0  0  0  0  0  0
   21.4637   -1.7054  -11.7916 C   0  0  0  0  0  0  0  0  0  0  0  0
   21.2444   -2.3878  -12.9356 F   0  0  0  0  0  0  0  0  0  0  0  0
   22.7793   -1.5429  -11.3737 C   0  0  0  0  0  0  0  0  0  0  0  0
   23.0807   -0.8611  -10.2210 C   0  0  0  0  0  0  0  0  0  0  0  0
   24.3495   -0.6898   -9.7942 O   0  0  0  0  0  0  0  0  0  0  0  0
   25.5262   -0.4710  -10.4710 C   0  0  2  0  0  0  0  0  0  0  0  0
   26.2995   -1.7231  -10.8042 C   0  0  0  0  0  0  0  0  0  0  0  0
   27.3281   -1.8252   -9.8684 O   0  0  0  0  0  0  0  0  0  0  0  0
   27.8091   -0.5260   -9.7277 C   0  0  0  0  0  0  0  0  0  0  0  0
   26.5262    0.2706   -9.6058 C   0  0  1  0  0  0  0  0  0  0  0  0
   26.7954    1.5337  -10.1075 F   0  0  0  0  0  0  0  0  0  0  0  0
   26.1363    0.3357   -8.2953 F   0  0  0  0  0  0  0  0  0  0  0  0
   22.0229   -0.3246   -9.4634 C   0  0  0  0  0  0  0  0  0  0  0  0
  1  2  3  0
  2  3  1  0
  3  4  2  0
  4  5  1  0
  5  6  1  0
  5  7  2  0
  7  8  1  0
  8  9  1  0
 10  9  1  1
 10 11  1  0
 11 12  1  1
 13 12  1  6
 13 14  1  0
 14 15  1  6
 14 16  1  0
  8 17  2  0
 17  3  1  0
 14 10  1  0
M  END
$$$$
