_rank2
     RDKit          3D

 17 18  0  0  0  0  0  0  0  0999 V2000
   19.0128    1.4619   -8.7800 N   0  0  0  0  0  0  0  0  0  0  0  0
   19.6495    0.7255   -9.4207 C   0  0  0  0  0  0  0  0  0  0  0  0
   20.4468   -0.1664  -10.2176 C   0  0  0  0  0  0  0  0  0  0  0  0
   19.8253   -1.1447  -10.9356 C   0  0  0  0  0  0  0  0  0  0  0  0
   20.5352   -2.0282  -11.7168 C   0  0  0  0  0  0  0  0  0  0  0  0
   19.9574   -3.0096  -12.4419 F   0  0  0  0  0  0  0  0  0  0  0  0
   21.9192   -1.9113  -11.7677 C   0  0  0  0  0  0  0  0  0  0  0  0
   22.5777   -0.9383  -11.0577 C   0  0  0  0  0  0  0  0  0  0  0  0
   23.9202   -0.8042  -11.0905 O   0  0  0  0  0  0  0  0  0  0  0  0
   24.7397    0.2887  -10.9334 C   0  0  2  0  0  0  0  0  0  0  0  0
   25.4684    0.7104  -12.1855 C   0  0  0  0  0  0  0  0  0  0  0  0
   26.7714    0.2256  -12.0788 O   0  0  0  0  0  0  0  0  0  0  0  0
   27.1283    0.4583  -10.7530 C   0  0  0  0  0  0  0  0  0  0  0  0
   25.9000   -0.0248  -10.0094 C   0  0  1  0  0  0  0  0  0  0  0  0
   25.8313    0.7117   -8.8379 F   0  0  0  0  0  0  0  0  0  0  0  0
   26.0085   -1.3630   -9.7423 F   0  0  0  0  0  0  0  0  0  0  0  0
   21.8181   -0.0532  -10.2701 C   0  0  0  0  0  0  0  0  0  0  0  0
  1  2  3  0
  2  3  1  0
  3  4  2  0
  4  5  1  0
  5  6  1  0
  5  7  2  0
  7  8  1  0
  8  9  1  0
 10  9  1  6
 10 11  1  0
 11 12  1  1
 13 12  1  6
 13 14  1  0
 14 15  1  1
 14 16  1  0
  8 17  2  0
 17  3  1  0
 14 10  1  0
M  END
$$$$
