_rank13
     RDKit          3D

 17 18  0  0  0  0  0  0  0  0999 V2000
   19.4856   -2.7845   -9.1691 N   0  0  0  0  0  0  0  0  0  0  0  0
   20.3998   -2.3002   -9.7058 C   0  0  0  0  0  0  0  0  0  0  0  0
   21.5140   -1.6914  -10.3798 C   0  0  0  0  0  0  0  0  0  0  0  0
   21.4005   -1.3919  -11.7050 C   0  0  0  0  0  0  0  0  0  0  0  0
   22.4329   -0.8085  -12.4041 C   0  0  0  0  0  0  0  0  0  0  0  0
   22.3599   -0.4967  -13.7156 F   0  0  0  0  0  0  0  0  0  0  0  0
   23.6156   -0.5220  -11.7327 C   0  0  0  0  0  0  0  0  0  0  0  0
   23.7644   -0.8100  -10.3988 C   0  0  0  0  0  0  0  0  0  0  0  0
   24.9024   -0.5417   -9.7247 O   0  0  0  0  0  0  0  0  0  0  0  0
   26.0681    0.0838  -10.0997 C   0  0  2  0  0  0  0  0  0  0  0  0
   26.9177   -0.7025  -11.0675 C   0  0  0  0  0  0  0  0  0  0  0  0
   27.9446   -1.2843  -10.3250 O   0  0  0  0  0  0  0  0  0  0  0  0
   28.3453   -0.2907   -9.4354 C   0  0  0  0  0  0  0  0  0  0  0  0
   27.0159    0.2262   -8.9250 C   0  0  1  0  0  0  0  0  0  0  0  0
   27.2115    1.5556   -8.5869 F   0  0  0  0  0  0  0  0  0  0  0  0
   26.6143   -0.5027   -7.8382 F   0  0  0  0  0  0  0  0  0  0  0  0
   22.6870   -1.4063   -9.7175 C   0  0  0  0  0  0  0  0  0  0  0  0
  1  2  3  0
  2  3  1  0
  3  4  2  0
  4  5  1  0
  5  6  1  0
  5  7  2  0
  7  8  1  0
  8  9  1  0
 10  9  1  1
 10 11  1  0
 11 12  1  1
 13 12  1  6
 13 14  1  0
 14 15  1  1
 14 16  1  0
  8 17  2  0
 17  3  1  0
 14 10  1  0
M  END
$$$$
