_rank15
     RDKit          3D

 17 18  0  0  0  0  0  0  0  0999 V2000
   25.2614   -0.7123   -6.1122 N   0  0  0  0  0  0  0  0  0  0  0  0
   24.8044   -0.8149   -7.1794 C   0  0  0  0  0  0  0  0  0  0  0  0
   24.2470   -0.9216   -8.5001 C   0  0  0  0  0  0  0  0  0  0  0  0
   23.0090   -1.4722   -8.6519 C   0  0  0  0  0  0  0  0  0  0  0  0
   22.4234   -1.6010   -9.8910 C   0  0  0  0  0  0  0  0  0  0  0  0
   21.2006   -2.1401  -10.0829 F   0  0  0  0  0  0  0  0  0  0  0  0
   23.1200   -1.1557  -11.0081 C   0  0  0  0  0  0  0  0  0  0  0  0
   24.3683   -0.5964  -10.8921 C   0  0  0  0  0  0  0  0  0  0  0  0
   25.0647   -0.1566  -11.9612 O   0  0  0  0  0  0  0  0  0  0  0  0
   25.6975    1.0365  -12.2194 C   0  0  2  0  0  0  0  0  0  0  0  0
   24.7999    2.1144  -12.7755 C   0  0  0  0  0  0  0  0  0  0  0  0
   25.0269    2.1612  -14.1505 O   0  0  0  0  0  0  0  0  0  0  0  0
   26.4068    2.0327  -14.2862 C   0  0  0  0  0  0  0  0  0  0  0  0
   26.7087    0.8892  -13.3394 C   0  0  1  0  0  0  0  0  0  0  0  0
   28.0033    1.0825  -12.8852 F   0  0  0  0  0  0  0  0  0  0  0  0
   26.5919   -0.3068  -13.9949 F   0  0  0  0  0  0  0  0  0  0  0  0
   24.9346   -0.4814   -9.6089 C   0  0  0  0  0  0  0  0  0  0  0  0
  1  2  3  0
  2  3  1  0
  3  4  2  0
  4  5  1  0
  5  6  1  0
  5  7  2  0
  7  8  1  0
  8  9  1  0
 10  9  1  6
 10 11  1  0
 11 12  1  1
 13 12  1  6
 13 14  1  0
 14 15  1  1
 14 16  1  0
  8 17  2  0
 17  3  1  0
 14 10  1  0
M  END
$$$$
