_rank1
     RDKit          3D

 17 18  0  0  0  0  0  0  0  0999 V2000
   18.5312    2.0211   -9.2257 N   0  0  0  0  0  0  0  0  0  0  0  0
   19.3210    1.2427   -9.5844 C   0  0  0  0  0  0  0  0  0  0  0  0
   20.3038    0.2975  -10.0394 C   0  0  0  0  0  0  0  0  0  0  0  0
   19.8973   -0.9487  -10.4145 C   0  0  0  0  0  0  0  0  0  0  0  0
   20.7915   -1.8963  -10.8587 C   0  0  0  0  0  0  0  0  0  0  0  0
   20.4292   -3.1400  -11.2387 F   0  0  0  0  0  0  0  0  0  0  0  0
   22.1396   -1.5640  -10.9224 C   0  0  0  0  0  0  0  0  0  0  0  0
   22.5838   -0.3189  -10.5527 C   0  0  0  0  0  0  0  0  0  0  0  0
   23.8870    0.0280  -10.6056 O   0  0  0  0  0  0  0  0  0  0  0  0
   24.9749   -0.5701  -11.1966 C   0  0  2  0  0  0  0  0  0  0  0  0
   25.9984   -1.1074  -10.2268 C   0  0  0  0  0  0  0  0  0  0  0  0
   27.0405   -0.1820  -10.1835 O   0  0  0  0  0  0  0  0  0  0  0  0
   27.2268    0.2039  -11.5084 C   0  0  0  0  0  0  0  0  0  0  0  0
   25.8026    0.4386  -11.9686 C   0  0  1  0  0  0  0  0  0  0  0  0
   25.7790    0.1815  -13.3299 F   0  0  0  0  0  0  0  0  0  0  0  0
   25.4308    1.7297  -11.7064 F   0  0  0  0  0  0  0  0  0  0  0  0
   21.6400    0.6236  -10.1038 C   0  0  0  0  0  0  0  0  0  0  0  0
  1  2  3  0
  2  3  1  0
  3  4  2  0
  4  5  1  0
  5  6  1  0
  5  7  2  0
  7  8  1  0
  8  9  1  0
 10  9  1  1
 10 11  1  0
 11 12  1  1
 13 12  1  6
 13 14  1  0
 14 15  1  6
 14 16  1  0
  8 17  2  0
 17  3  1  0
 14 10  1  0
M  END
$$$$
