_rank16
     RDKit          3D

 19 21  0  0  0  0  0  0  0  0999 V2000
   18.4567    3.3701   -8.6448 N   0  0  0  0  0  0  0  0  0  0  0  0
   19.3005    2.5947   -8.5620 C   0  0  0  0  0  0  0  0  0  0  0  0
   20.3695    1.6378   -8.4542 C   0  0  0  0  0  0  0  0  0  0  0  0
   20.4447    0.8788   -7.3120 C   0  0  0  0  0  0  0  0  0  0  0  0
   21.4802   -0.0235   -7.2481 C   0  0  0  0  0  0  0  0  0  0  0  0
   21.5977   -0.8078   -6.1221 F   0  0  0  0  0  0  0  0  0  0  0  0
   22.4206   -0.1921   -8.2576 C   0  0  0  0  0  0  0  0  0  0  0  0
   22.3453    0.5617   -9.3902 C   0  0  0  0  0  0  0  0  0  0  0  0
   23.2576    0.4699  -10.4587 N   0  0  0  0  0  0  0  0  0  0  0  0
   24.4908   -0.2664  -10.5397 C   0  0  2  0  0  0  0  0  0  0  0  0
   25.4220    0.0598   -9.4330 C   0  0  0  0  0  0  0  0  0  0  0  0
   26.8140   -0.4989   -9.6452 C   0  0  0  0  0  0  0  0  0  0  0  0
   27.3913    0.1720  -10.8496 C   0  0  0  0  0  0  0  0  0  0  0  0
   26.5331   -0.2129  -12.0345 C   0  0  0  0  0  0  0  0  0  0  0  0
   25.1003    0.1444  -11.8998 C   0  0  1  0  0  0  0  0  0  0  0  0
   24.3076   -0.6675  -12.9034 C   0  0  0  0  0  0  0  0  0  0  0  0
   23.4878   -1.6637  -12.1111 C   0  0  0  0  0  0  0  0  0  0  0  0
   24.3188   -1.7421  -10.8180 C   0  0  0  0  0  0  0  0  0  0  0  0
   21.2924    1.4851   -9.4655 C   0  0  0  0  0  0  0  0  0  0  0  0
  1  2  3  0
  2  3  1  0
  3  4  2  0
  4  5  1  0
  5  6  1  0
  5  7  2  0
  7  8  1  0
  8  9  1  0
 10  9  1  1
 11 10  1  6
 12 11  1  6
 13 12  1  1
 14 13  1  6
 15 14  1  1
 16 15  1  6
 17 16  1  1
 18 17  1  6
  8 19  2  0
 19  3  1  0
 15 10  1  0
 18 10  1  0
M  END
$$$$
