_rank2
     RDKit          3D

 19 21  0  0  0  0  0  0  0  0999 V2000
   20.3441   -3.7792  -11.5073 N   0  0  0  0  0  0  0  0  0  0  0  0
   20.6211   -2.7164  -11.1700 C   0  0  0  0  0  0  0  0  0  0  0  0
   20.9603   -1.3890  -10.7303 C   0  0  0  0  0  0  0  0  0  0  0  0
   19.9487   -0.5827  -10.2690 C   0  0  0  0  0  0  0  0  0  0  0  0
   20.3143    0.6775   -9.8584 C   0  0  0  0  0  0  0  0  0  0  0  0
   19.3347    1.5233   -9.3876 F   0  0  0  0  0  0  0  0  0  0  0  0
   21.6206    1.1512   -9.8905 C   0  0  0  0  0  0  0  0  0  0  0  0
   22.6234    0.3506  -10.3486 C   0  0  0  0  0  0  0  0  0  0  0  0
   23.9721    0.7468  -10.4294 N   0  0  0  0  0  0  0  0  0  0  0  0
   25.1621   -0.0553  -10.3304 C   0  0  2  0  0  0  0  0  0  0  0  0
   25.2823   -0.7354   -9.0184 C   0  0  0  0  0  0  0  0  0  0  0  0
   26.6431   -1.3637   -8.7986 C   0  0  0  0  0  0  0  0  0  0  0  0
   27.6493   -0.2591   -8.7575 C   0  0  0  0  0  0  0  0  0  0  0  0
   27.6416    0.4081  -10.1153 C   0  0  0  0  0  0  0  0  0  0  0  0
   26.3234    0.9456  -10.5304 C   0  0  1  0  0  0  0  0  0  0  0  0
   26.3466    1.1669  -12.0288 C   0  0  0  0  0  0  0  0  0  0  0  0
   25.4171    0.1387  -12.6380 C   0  0  0  0  0  0  0  0  0  0  0  0
   25.4247   -0.9326  -11.5330 C   0  0  0  0  0  0  0  0  0  0  0  0
   22.2611   -0.9371  -10.7697 C   0  0  0  0  0  0  0  0  0  0  0  0
  1  2  3  0
  2  3  1  0
  3  4  2  0
  4  5  1  0
  5  6  1  0
  5  7  2  0
  7  8  1  0
  8  9  1  0
 10  9  1  6
 11 10  1  6
 12 11  1  6
 13 12  1  1
 14 13  1  6
 15 14  1  6
 16 15  1  6
 17 16  1  1
 18 17  1  6
  8 19  2  0
 19  3  1  0
 15 10  1  0
 18 10  1  0
M  END
$$$$
