_rank3
     RDKit          3D

 19 21  0  0  0  0  0  0  0  0999 V2000
   20.7750   -3.9759  -11.7145 N   0  0  0  0  0  0  0  0  0  0  0  0
   20.9975   -2.9090  -11.3509 C   0  0  0  0  0  0  0  0  0  0  0  0
   21.2938   -1.5784  -10.8904 C   0  0  0  0  0  0  0  0  0  0  0  0
   20.2612   -0.8218  -10.3929 C   0  0  0  0  0  0  0  0  0  0  0  0
   20.5859    0.4433   -9.9634 C   0  0  0  0  0  0  0  0  0  0  0  0
   19.5840    1.2406   -9.4561 F   0  0  0  0  0  0  0  0  0  0  0  0
   21.8720    0.9684  -10.0108 C   0  0  0  0  0  0  0  0  0  0  0  0
   22.8956    0.2169  -10.5049 C   0  0  0  0  0  0  0  0  0  0  0  0
   24.2260    0.6671  -10.6036 N   0  0  0  0  0  0  0  0  0  0  0  0
   25.4495   -0.0674  -10.4223 C   0  0  2  0  0  0  0  0  0  0  0  0
   25.4606   -0.8530   -9.1649 C   0  0  0  0  0  0  0  0  0  0  0  0
   26.8266   -1.4151   -8.8289 C   0  0  0  0  0  0  0  0  0  0  0  0
   27.7402   -0.2599   -8.5737 C   0  0  0  0  0  0  0  0  0  0  0  0
   27.8468    0.5236   -9.8634 C   0  0  0  0  0  0  0  0  0  0  0  0
   26.5527    1.0154  -10.3946 C   0  0  1  0  0  0  0  0  0  0  0  0
   26.7382    1.3701  -11.8557 C   0  0  0  0  0  0  0  0  0  0  0  0
   25.9628    0.3459  -12.6569 C   0  0  0  0  0  0  0  0  0  0  0  0
   25.9146   -0.8169  -11.6498 C   0  0  0  0  0  0  0  0  0  0  0  0
   22.5750   -1.0753  -10.9456 C   0  0  0  0  0  0  0  0  0  0  0  0
  1  2  3  0
  2  3  1  0
  3  4  2  0
  4  5  1  0
  5  6  1  0
  5  7  2  0
  7  8  1  0
  8  9  1  0
 10  9  1  6
 11 10  1  6
 12 11  1  6
 13 12  1  1
 14 13  1  6
 15 14  1  6
 16 15  1  6
 17 16  1  1
 18 17  1  6
  8 19  2  0
 19  3  1  0
 15 10  1  0
 18 10  1  0
M  END
$$$$
