_rank11
     RDKit          3D

 19 21  0  0  0  0  0  0  0  0999 V2000
   28.4095    2.3439   -8.4241 N   0  0  0  0  0  0  0  0  0  0  0  0
   27.8710    1.3293   -8.4496 C   0  0  0  0  0  0  0  0  0  0  0  0
   27.2124    0.0507   -8.4890 C   0  0  0  0  0  0  0  0  0  0  0  0
   27.9189   -1.0532   -8.0787 C   0  0  0  0  0  0  0  0  0  0  0  0
   27.2540   -2.2555   -8.1316 C   0  0  0  0  0  0  0  0  0  0  0  0
   27.9209   -3.3916   -7.7302 F   0  0  0  0  0  0  0  0  0  0  0  0
   25.9417   -2.3933   -8.5685 C   0  0  0  0  0  0  0  0  0  0  0  0
   25.2418   -1.2975   -8.9758 C   0  0  0  0  0  0  0  0  0  0  0  0
   23.9149   -1.3408   -9.4448 N   0  0  0  0  0  0  0  0  0  0  0  0
   23.3973   -0.9889  -10.7400 C   0  0  2  0  0  0  0  0  0  0  0  0
   24.3978   -0.2903  -11.5821 C   0  0  0  0  0  0  0  0  0  0  0  0
   23.7989    0.3175  -12.8337 C   0  0  0  0  0  0  0  0  0  0  0  0
   22.8405    1.3815  -12.4052 C   0  0  0  0  0  0  0  0  0  0  0  0
   21.7361    0.7048  -11.6235 C   0  0  0  0  0  0  0  0  0  0  0  0
   22.1981   -0.0603  -10.4403 C   0  0  1  0  0  0  0  0  0  0  0  0
   21.0997   -1.0202  -10.0317 C   0  0  0  0  0  0  0  0  0  0  0  0
   21.5976   -2.4150  -10.3459 C   0  0  0  0  0  0  0  0  0  0  0  0
   22.6413   -2.0998  -11.4323 C   0  0  0  0  0  0  0  0  0  0  0  0
   25.9110   -0.0660   -8.9254 C   0  0  0  0  0  0  0  0  0  0  0  0
  1  2  3  0
  2  3  1  0
  3  4  2  0
  4  5  1  0
  5  6  1  0
  5  7  2  0
  7  8  1  0
  8  9  1  0
 10  9  1  1
 11 10  1  6
 12 11  1  6
 13 12  1  1
 14 13  1  6
 15 14  1  6
 16 15  1  6
 17 16  1  1
 18 17  1  6
  8 19  2  0
 19  3  1  0
 15 10  1  0
 18 10  1  0
M  END
$$$$
