_rank5
     RDKit          3D

 19 21  0  0  0  0  0  0  0  0999 V2000
   18.3270    1.4564   -8.6346 N   0  0  0  0  0  0  0  0  0  0  0  0
   19.1683    0.9470   -9.2286 C   0  0  0  0  0  0  0  0  0  0  0  0
   20.2141    0.2918   -9.9684 C   0  0  0  0  0  0  0  0  0  0  0  0
   19.8541   -0.6561  -10.8947 C   0  0  0  0  0  0  0  0  0  0  0  0
   20.8827   -1.2584  -11.5801 C   0  0  0  0  0  0  0  0  0  0  0  0
   20.5718   -2.2160  -12.5199 F   0  0  0  0  0  0  0  0  0  0  0  0
   22.2246   -0.9569  -11.3800 C   0  0  0  0  0  0  0  0  0  0  0  0
   22.5806   -0.0165  -10.4604 C   0  0  0  0  0  0  0  0  0  0  0  0
   23.9120    0.3462  -10.1807 N   0  0  0  0  0  0  0  0  0  0  0  0
   25.1289   -0.3563  -10.4890 C   0  0  2  0  0  0  0  0  0  0  0  0
   25.1302   -1.7461   -9.9725 C   0  0  0  0  0  0  0  0  0  0  0  0
   26.4905   -2.4076  -10.0535 C   0  0  0  0  0  0  0  0  0  0  0  0
   27.4130   -1.6559   -9.1490 C   0  0  0  0  0  0  0  0  0  0  0  0
   27.5295   -0.2490   -9.6927 C   0  0  0  0  0  0  0  0  0  0  0  0
   26.2410    0.4754   -9.8095 C   0  0  1  0  0  0  0  0  0  0  0  0
   26.4333    1.6466  -10.7509 C   0  0  0  0  0  0  0  0  0  0  0  0
   25.6515    1.3307  -12.0084 C   0  0  0  0  0  0  0  0  0  0  0  0
   25.5910   -0.2046  -11.9202 C   0  0  0  0  0  0  0  0  0  0  0  0
   21.5389    0.6041   -9.7559 C   0  0  0  0  0  0  0  0  0  0  0  0
  1  2  3  0
  2  3  1  0
  3  4  2  0
  4  5  1  0
  5  6  1  0
  5  7  2  0
  7  8  1  0
  8  9  1  0
 10  9  1  6
 11 10  1  6
 12 11  1  6
 13 12  1  1
 14 13  1  6
 15 14  1  6
 16 15  1  6
 17 16  1  1
 18 17  1  6
  8 19  2  0
 19  3  1  0
 15 10  1  0
 18 10  1  0
M  END
$$$$
