_rank15
     RDKit          3D

 19 21  0  0  0  0  0  0  0  0999 V2000
   18.3659    1.0403   -9.1367 N   0  0  0  0  0  0  0  0  0  0  0  0
   19.5051    0.8917   -9.1565 C   0  0  0  0  0  0  0  0  0  0  0  0
   20.9290    0.6884   -9.1893 C   0  0  0  0  0  0  0  0  0  0  0  0
   21.6466    0.9564   -8.0494 C   0  0  0  0  0  0  0  0  0  0  0  0
   23.0039    0.7493   -8.1221 C   0  0  0  0  0  0  0  0  0  0  0  0
   23.7666    1.0042   -7.0040 F   0  0  0  0  0  0  0  0  0  0  0  0
   23.6556    0.2955   -9.2628 C   0  0  0  0  0  0  0  0  0  0  0  0
   22.9428    0.0302  -10.3933 C   0  0  0  0  0  0  0  0  0  0  0  0
   23.5162   -0.4205  -11.5976 N   0  0  0  0  0  0  0  0  0  0  0  0
   24.8040   -1.0212  -11.8218 C   0  0  2  0  0  0  0  0  0  0  0  0
   24.7511   -2.5029  -11.8063 C   0  0  0  0  0  0  0  0  0  0  0  0
   26.1227   -3.1449  -11.7751 C   0  0  0  0  0  0  0  0  0  0  0  0
   26.7698   -2.7656  -10.4821 C   0  0  0  0  0  0  0  0  0  0  0  0
   26.9426   -1.2626  -10.4888 C   0  0  0  0  0  0  0  0  0  0  0  0
   25.6840   -0.4982  -10.6631 C   0  0  1  0  0  0  0  0  0  0  0  0
   26.0351    0.9113  -11.0929 C   0  0  0  0  0  0  0  0  0  0  0  0
   25.5864    1.0552  -12.5317 C   0  0  0  0  0  0  0  0  0  0  0  0
   25.5811   -0.4201  -12.9704 C   0  0  0  0  0  0  0  0  0  0  0  0
   21.5573    0.2381  -10.3297 C   0  0  0  0  0  0  0  0  0  0  0  0
  1  2  3  0
  2  3  1  0
  3  4  2  0
  4  5  1  0
  5  6  1  0
  5  7  2  0
  7  8  1  0
  8  9  1  0
 10  9  1  1
 11 10  1  6
 12 11  1  6
 13 12  1  1
 14 13  1  6
 15 14  1  6
 16 15  1  6
 17 16  1  1
 18 17  1  6
  8 19  2  0
 19  3  1  0
 15 10  1  0
 18 10  1  0
M  END
$$$$
