_rank13
     RDKit          3D

 25 27  0  0  0  0  0  0  0  0999 V2000
   27.9097    1.5487   -8.6250 C   0  0  0  0  0  0  0  0  0  0  0  0
   27.5274   -0.2012   -8.7857 S   0  0  2  0  0  6  0  0  0  0  0  0
   27.4242   -0.7599   -7.4220 O   0  0  0  0  0  0  0  0  0  0  0  0
   28.7017   -0.8952   -9.4575 O   0  0  0  0  0  0  0  0  0  0  0  0
   26.1002   -0.3308   -9.7423 C   0  0  0  0  0  0  0  0  0  0  0  0
   24.9315   -0.7529   -9.1482 C   0  0  0  0  0  0  0  0  0  0  0  0
   23.7799   -0.8597   -9.9102 C   0  0  0  0  0  0  0  0  0  0  0  0
   23.8301   -0.5412  -11.2455 C   0  0  0  0  0  0  0  0  0  0  0  0
   22.6805   -0.6469  -12.0101 O   0  0  0  0  0  0  0  0  0  0  0  0
   21.4341   -0.6182  -11.4234 C   0  0  0  0  0  0  0  0  0  0  0  0
   21.0618    0.3819  -10.5424 C   0  0  0  0  0  0  0  0  0  0  0  0
   19.8112    0.4029   -9.9592 C   0  0  0  0  0  0  0  0  0  0  0  0
   19.4915    1.3962   -9.1069 F   0  0  0  0  0  0  0  0  0  0  0  0
   18.9094   -0.5844  -10.2522 C   0  0  0  0  0  0  0  0  0  0  0  0
   19.2573   -1.6029  -11.1353 C   0  0  0  0  0  0  0  0  0  0  0  0
   18.2634   -2.6006  -11.3937 C   0  0  0  0  0  0  0  0  0  0  0  0
   17.4592   -3.4325  -11.5951 N   0  0  0  0  0  0  0  0  0  0  0  0
   20.5060   -1.6030  -11.7027 C   0  0  0  0  0  0  0  0  0  0  0  0
   25.0289   -0.1085  -11.8541 C   0  0  0  0  0  0  0  0  0  0  0  0
   26.1555   -0.0068  -11.0961 C   0  0  0  0  0  0  0  0  0  0  0  0
   27.2941    0.4511  -11.8815 C   0  0  2  0  0  0  0  0  0  0  0  0
   27.9459    1.5572  -11.3102 O   0  0  0  0  0  0  0  0  0  0  0  0
   26.6415    1.0000  -13.1539 C   0  0  0  0  0  0  0  0  0  0  0  0
   25.3349    0.2842  -13.2451 C   0  0  2  0  0  0  0  0  0  0  0  0
   24.3320    1.0331  -13.8168 F   0  0  0  0  0  0  0  0  0  0  0  0
  1  2  1  1
  2  3  2  0
  2  4  2  0
  2  5  1  6
  5  6  2  0
  6  7  1  0
  7  8  2  0
  8  9  1  0
  9 10  1  0
 10 11  2  0
 11 12  1  0
 12 13  1  0
 12 14  2  0
 14 15  1  0
 15 16  1  0
 16 17  3  0
 15 18  2  0
  8 19  1  0
 19 20  2  0
 20 21  1  0
 21 22  1  1
 23 21  1  1
 23 24  1  0
 24 25  1  1
 20  5  1  0
 18 10  1  0
 24 19  1  0
M  END
$$$$
