_rank16
     RDKit          3D

 25 27  0  0  0  0  0  0  0  0999 V2000
   28.6291   -1.8123   -9.3614 C   0  0  0  0  0  0  0  0  0  0  0  0
   27.5940   -0.5462   -8.6129 S   0  0  2  0  0  6  0  0  0  0  0  0
   28.4001    0.6883   -8.5202 O   0  0  0  0  0  0  0  0  0  0  0  0
   27.2670   -0.9658   -7.1885 O   0  0  0  0  0  0  0  0  0  0  0  0
   26.1644   -0.4199   -9.5663 C   0  0  0  0  0  0  0  0  0  0  0  0
   24.9603   -0.8099   -9.0230 C   0  0  0  0  0  0  0  0  0  0  0  0
   23.8064   -0.7115   -9.7827 C   0  0  0  0  0  0  0  0  0  0  0  0
   23.8898   -0.2257  -11.0649 C   0  0  0  0  0  0  0  0  0  0  0  0
   22.7380   -0.1261  -11.8270 O   0  0  0  0  0  0  0  0  0  0  0  0
   21.4962   -0.3245  -11.2638 C   0  0  0  0  0  0  0  0  0  0  0  0
   20.8129    0.6921  -10.6199 C   0  0  0  0  0  0  0  0  0  0  0  0
   19.5693    0.4847  -10.0585 C   0  0  0  0  0  0  0  0  0  0  0  0
   18.9401    1.5036   -9.4411 F   0  0  0  0  0  0  0  0  0  0  0  0
   18.9885   -0.7525  -10.1345 C   0  0  0  0  0  0  0  0  0  0  0  0
   19.6536   -1.7936  -10.7766 C   0  0  0  0  0  0  0  0  0  0  0  0
   18.9850   -3.0591  -10.8168 C   0  0  0  0  0  0  0  0  0  0  0  0
   18.4363   -4.0974  -10.8294 N   0  0  0  0  0  0  0  0  0  0  0  0
   20.8886   -1.5638  -11.3271 C   0  0  0  0  0  0  0  0  0  0  0  0
   25.1248    0.1740  -11.6213 C   0  0  0  0  0  0  0  0  0  0  0  0
   26.2534    0.0733  -10.8661 C   0  0  0  0  0  0  0  0  0  0  0  0
   27.4313    0.5266  -11.5940 C   0  0  2  0  0  0  0  0  0  0  0  0
   28.1781    1.4846  -10.8877 O   0  0  0  0  0  0  0  0  0  0  0  0
   26.8353    1.2946  -12.7777 C   0  0  0  0  0  0  0  0  0  0  0  0
   25.4698    0.7174  -12.9512 C   0  0  2  0  0  0  0  0  0  0  0  0
   24.5406    1.6221  -13.4109 F   0  0  0  0  0  0  0  0  0  0  0  0
  1  2  1  1
  2  3  2  0
  2  4  2  0
  2  5  1  6
  5  6  2  0
  6  7  1  0
  7  8  2  0
  8  9  1  0
  9 10  1  0
 10 11  2  0
 11 12  1  0
 12 13  1  0
 12 14  2  0
 14 15  1  0
 15 16  1  0
 16 17  3  0
 15 18  2  0
  8 19  1  0
 19 20  2  0
 20 21  1  0
 21 22  1  1
 23 21  1  1
 23 24  1  0
 24 25  1  1
 20  5  1  0
 18 10  1  0
 24 19  1  0
M  END
$$$$
