_rank17
     RDKit          3D

 25 27  0  0  0  0  0  0  0  0999 V2000
   28.7376   -1.4795   -9.5076 C   0  0  0  0  0  0  0  0  0  0  0  0
   27.5872   -0.3019   -8.7836 S   0  0  2  0  0  6  0  0  0  0  0  0
   28.2718    1.0057   -8.7204 O   0  0  0  0  0  0  0  0  0  0  0  0
   27.3033   -0.7194   -7.3493 O   0  0  0  0  0  0  0  0  0  0  0  0
   26.1510   -0.3337   -9.7349 C   0  0  0  0  0  0  0  0  0  0  0  0
   24.9601   -0.6847   -9.1385 C   0  0  0  0  0  0  0  0  0  0  0  0
   23.8010   -0.7127   -9.8962 C   0  0  0  0  0  0  0  0  0  0  0  0
   23.8661   -0.3886  -11.2295 C   0  0  0  0  0  0  0  0  0  0  0  0
   22.7091   -0.4156  -11.9898 O   0  0  0  0  0  0  0  0  0  0  0  0
   21.4717   -0.5238  -11.3934 C   0  0  0  0  0  0  0  0  0  0  0  0
   20.9320    0.5000  -10.6348 C   0  0  0  0  0  0  0  0  0  0  0  0
   19.6917    0.3833  -10.0409 C   0  0  0  0  0  0  0  0  0  0  0  0
   19.2051    1.4056   -9.3107 F   0  0  0  0  0  0  0  0  0  0  0  0
   18.9693   -0.7686  -10.1996 C   0  0  0  0  0  0  0  0  0  0  0  0
   19.4881   -1.8147  -10.9578 C   0  0  0  0  0  0  0  0  0  0  0  0
   18.6764   -2.9880  -11.0796 C   0  0  0  0  0  0  0  0  0  0  0  0
   17.9946   -3.9398  -11.1723 N   0  0  0  0  0  0  0  0  0  0  0  0
   20.7229   -1.6759  -11.5385 C   0  0  0  0  0  0  0  0  0  0  0  0
   25.0876   -0.0288  -11.8404 C   0  0  0  0  0  0  0  0  0  0  0  0
   26.2214   -0.0043  -11.0866 C   0  0  0  0  0  0  0  0  0  0  0  0
   27.3837    0.3858  -11.8739 C   0  0  2  0  0  0  0  0  0  0  0  0
   28.1068    1.4441  -11.2979 O   0  0  0  0  0  0  0  0  0  0  0  0
   26.7624    0.9840  -13.1397 C   0  0  0  0  0  0  0  0  0  0  0  0
   25.4125    0.3535  -13.2301 C   0  0  2  0  0  0  0  0  0  0  0  0
   24.4571    1.1687  -13.7922 F   0  0  0  0  0  0  0  0  0  0  0  0
  1  2  1  1
  2  3  2  0
  2  4  2  0
  2  5  1  6
  5  6  2  0
  6  7  1  0
  7  8  2  0
  8  9  1  0
  9 10  1  0
 10 11  2  0
 11 12  1  0
 12 13  1  0
 12 14  2  0
 14 15  1  0
 15 16  1  0
 16 17  3  0
 15 18  2  0
  8 19  1  0
 19 20  2  0
 20 21  1  0
 21 22  1  1
 23 21  1  1
 23 24  1  0
 24 25  1  1
 20  5  1  0
 18 10  1  0
 24 19  1  0
M  END
$$$$
