_rank6
     RDKit          3D

 25 27  0  0  0  0  0  0  0  0999 V2000
   28.5997   -1.6409   -9.2899 C   0  0  0  0  0  0  0  0  0  0  0  0
   27.6092   -0.2486   -8.7288 S   0  0  2  0  0  6  0  0  0  0  0  0
   28.4558    0.9593   -8.8095 O   0  0  0  0  0  0  0  0  0  0  0  0
   27.2729   -0.4525   -7.2600 O   0  0  0  0  0  0  0  0  0  0  0  0
   26.1816   -0.2106   -9.6927 C   0  0  0  0  0  0  0  0  0  0  0  0
   24.9763   -0.5494   -9.1185 C   0  0  0  0  0  0  0  0  0  0  0  0
   23.8240   -0.5214   -9.8865 C   0  0  0  0  0  0  0  0  0  0  0  0
   23.9101   -0.1552  -11.2076 C   0  0  0  0  0  0  0  0  0  0  0  0
   22.7600   -0.1262  -11.9781 O   0  0  0  0  0  0  0  0  0  0  0  0
   21.5225   -0.3442  -11.4126 C   0  0  0  0  0  0  0  0  0  0  0  0
   20.9147   -1.5872  -11.4366 C   0  0  0  0  0  0  0  0  0  0  0  0
   19.6750   -1.7967  -10.8677 C   0  0  0  0  0  0  0  0  0  0  0  0
   19.1207   -3.0239  -10.9144 F   0  0  0  0  0  0  0  0  0  0  0  0
   19.0217   -0.7570  -10.2626 C   0  0  0  0  0  0  0  0  0  0  0  0
   19.6099    0.5043  -10.2240 C   0  0  0  0  0  0  0  0  0  0  0  0
   18.8681    1.5427   -9.5747 C   0  0  0  0  0  0  0  0  0  0  0  0
   18.2423    2.3856   -9.0483 N   0  0  0  0  0  0  0  0  0  0  0  0
   20.8428    0.6887  -10.7960 C   0  0  0  0  0  0  0  0  0  0  0  0
   25.1463    0.1920  -11.7958 C   0  0  0  0  0  0  0  0  0  0  0  0
   26.2733    0.1613  -11.0321 C   0  0  0  0  0  0  0  0  0  0  0  0
   27.4528    0.5461  -11.7961 C   0  0  2  0  0  0  0  0  0  0  0  0
   28.1981    1.5651  -11.1791 O   0  0  0  0  0  0  0  0  0  0  0  0
   26.8593    1.2022  -13.0464 C   0  0  0  0  0  0  0  0  0  0  0  0
   25.4942    0.6112  -13.1692 C   0  0  2  0  0  0  0  0  0  0  0  0
   24.5659    1.4697  -13.7119 F   0  0  0  0  0  0  0  0  0  0  0  0
  1  2  1  1
  2  3  2  0
  2  4  2  0
  2  5  1  6
  5  6  2  0
  6  7  1  0
  7  8  2  0
  8  9  1  0
  9 10  1  0
 10 11  2  0
 11 12  1  0
 12 13  1  0
 12 14  2  0
 14 15  1  0
 15 16  1  0
 16 17  3  0
 15 18  2  0
  8 19  1  0
 19 20  2  0
 20 21  1  0
 21 22  1  1
 23 21  1  1
 23 24  1  0
 24 25  1  1
 20  5  1  0
 18 10  1  0
 24 19  1  0
M  END
$$$$
