_rank18
     RDKit          3D

 25 27  0  0  0  0  0  0  0  0999 V2000
   28.5449    0.3436   -7.6970 C   0  0  0  0  0  0  0  0  0  0  0  0
   28.0533   -1.0361   -8.7406 S   0  0  2  0  0  6  0  0  0  0  0  0
   27.9804   -2.2370   -7.8833 O   0  0  0  0  0  0  0  0  0  0  0  0
   29.1526   -1.2896   -9.7601 O   0  0  0  0  0  0  0  0  0  0  0  0
   26.5784   -0.5960   -9.5150 C   0  0  0  0  0  0  0  0  0  0  0  0
   25.4138   -0.5823   -8.7798 C   0  0  0  0  0  0  0  0  0  0  0  0
   24.2240   -0.2297   -9.3948 C   0  0  0  0  0  0  0  0  0  0  0  0
   24.2329    0.0994  -10.7284 C   0  0  0  0  0  0  0  0  0  0  0  0
   23.0451    0.4524  -11.3463 O   0  0  0  0  0  0  0  0  0  0  0  0
   21.8529   -0.1305  -10.9754 C   0  0  0  0  0  0  0  0  0  0  0  0
   21.6238   -1.4873  -11.1221 C   0  0  0  0  0  0  0  0  0  0  0  0
   20.4266   -2.0629  -10.7481 C   0  0  0  0  0  0  0  0  0  0  0  0
   20.2471   -3.3885  -10.9089 F   0  0  0  0  0  0  0  0  0  0  0  0
   19.4349   -1.2823  -10.2181 C   0  0  0  0  0  0  0  0  0  0  0  0
   19.6382    0.0858  -10.0592 C   0  0  0  0  0  0  0  0  0  0  0  0
   18.5567    0.8383   -9.4987 C   0  0  0  0  0  0  0  0  0  0  0  0
   17.6750    1.4492   -9.0202 N   0  0  0  0  0  0  0  0  0  0  0  0
   20.8362    0.6357  -10.4381 C   0  0  0  0  0  0  0  0  0  0  0  0
   25.4275    0.0852  -11.4818 C   0  0  0  0  0  0  0  0  0  0  0  0
   26.5919   -0.2629  -10.8676 C   0  0  0  0  0  0  0  0  0  0  0  0
   27.7197   -0.2248  -11.7894 C   0  0  2  0  0  0  0  0  0  0  0  0
   28.7951    0.5420  -11.3096 O   0  0  0  0  0  0  0  0  0  0  0  0
   27.1728    0.5738  -12.9764 C   0  0  0  0  0  0  0  0  0  0  0  0
   25.6932    0.3915  -12.9025 C   0  0  2  0  0  0  0  0  0  0  0  0
   24.9783    1.4776  -13.3527 F   0  0  0  0  0  0  0  0  0  0  0  0
  1  2  1  1
  2  3  2  0
  2  4  2  0
  2  5  1  6
  5  6  2  0
  6  7  1  0
  7  8  2  0
  8  9  1  0
  9 10  1  0
 10 11  2  0
 11 12  1  0
 12 13  1  0
 12 14  2  0
 14 15  1  0
 15 16  1  0
 16 17  3  0
 15 18  2  0
  8 19  1  0
 19 20  2  0
 20 21  1  0
 21 22  1  1
 23 21  1  1
 23 24  1  0
 24 25  1  1
 20  5  1  0
 18 10  1  0
 24 19  1  0
M  END
$$$$
