_rank11
     RDKit          3D

 25 27  0  0  0  0  0  0  0  0999 V2000
   28.8442   -1.6054   -9.2090 C   0  0  0  0  0  0  0  0  0  0  0  0
   27.6867   -0.5148   -8.3692 S   0  0  2  0  0  6  0  0  0  0  0  0
   28.3634    0.7836   -8.1725 O   0  0  0  0  0  0  0  0  0  0  0  0
   27.4054   -1.0782   -6.9852 O   0  0  0  0  0  0  0  0  0  0  0  0
   26.2507   -0.4579   -9.3196 C   0  0  0  0  0  0  0  0  0  0  0  0
   25.0395   -0.7236   -8.7199 C   0  0  0  0  0  0  0  0  0  0  0  0
   23.8805   -0.6800   -9.4769 C   0  0  0  0  0  0  0  0  0  0  0  0
   23.9659   -0.3716  -10.8128 C   0  0  0  0  0  0  0  0  0  0  0  0
   22.8089   -0.3271  -11.5723 O   0  0  0  0  0  0  0  0  0  0  0  0
   21.5874   -0.6496  -11.0224 C   0  0  0  0  0  0  0  0  0  0  0  0
   21.0665   -1.9296  -11.0941 C   0  0  0  0  0  0  0  0  0  0  0  0
   19.8420   -2.2439  -10.5406 C   0  0  0  0  0  0  0  0  0  0  0  0
   19.3735   -3.5037  -10.6342 F   0  0  0  0  0  0  0  0  0  0  0  0
   19.1167   -1.2738   -9.9028 C   0  0  0  0  0  0  0  0  0  0  0  0
   19.6168    0.0226   -9.8158 C   0  0  0  0  0  0  0  0  0  0  0  0
   18.8031    0.9838   -9.1345 C   0  0  0  0  0  0  0  0  0  0  0  0
   18.1457    1.7682   -8.5583 N   0  0  0  0  0  0  0  0  0  0  0  0
   20.8361    0.3115  -10.3735 C   0  0  0  0  0  0  0  0  0  0  0  0
   25.2081   -0.0993  -11.4270 C   0  0  0  0  0  0  0  0  0  0  0  0
   26.3417   -0.1448  -10.6740 C   0  0  0  0  0  0  0  0  0  0  0  0
   27.5268    0.1603  -11.4649 C   0  0  2  0  0  0  0  0  0  0  0  0
   28.3197    1.1723  -10.8977 O   0  0  0  0  0  0  0  0  0  0  0  0
   26.9457    0.7886  -12.7352 C   0  0  0  0  0  0  0  0  0  0  0  0
   25.5566    0.2492  -12.8199 C   0  0  2  0  0  0  0  0  0  0  0  0
   24.6574    1.1220  -13.3881 F   0  0  0  0  0  0  0  0  0  0  0  0
  1  2  1  1
  2  3  2  0
  2  4  2  0
  2  5  1  6
  5  6  2  0
  6  7  1  0
  7  8  2  0
  8  9  1  0
  9 10  1  0
 10 11  2  0
 11 12  1  0
 12 13  1  0
 12 14  2  0
 14 15  1  0
 15 16  1  0
 16 17  3  0
 15 18  2  0
  8 19  1  0
 19 20  2  0
 20 21  1  0
 21 22  1  1
 23 21  1  1
 23 24  1  0
 24 25  1  1
 20  5  1  0
 18 10  1  0
 24 19  1  0
M  END
$$$$
