_rank4
     RDKit          3D

 25 27  0  0  0  0  0  0  0  0999 V2000
   28.0425    0.6856   -7.9195 C   0  0  0  0  0  0  0  0  0  0  0  0
   27.5550   -0.8610   -8.6972 S   0  0  2  0  0  6  0  0  0  0  0  0
   27.4765   -1.8858   -7.6360 O   0  0  0  0  0  0  0  0  0  0  0  0
   28.6593   -1.2959   -9.6476 O   0  0  0  0  0  0  0  0  0  0  0  0
   26.0846   -0.5692   -9.5465 C   0  0  0  0  0  0  0  0  0  0  0  0
   24.8864   -0.7299   -8.8865 C   0  0  0  0  0  0  0  0  0  0  0  0
   23.6999   -0.4973   -9.5621 C   0  0  0  0  0  0  0  0  0  0  0  0
   23.7457   -0.1104  -10.8794 C   0  0  0  0  0  0  0  0  0  0  0  0
   22.5612    0.1230  -11.5576 O   0  0  0  0  0  0  0  0  0  0  0  0
   21.3436   -0.1370  -10.9674 C   0  0  0  0  0  0  0  0  0  0  0  0
   20.6013    0.8551  -10.3513 C   0  0  0  0  0  0  0  0  0  0  0  0
   19.3825    0.5859   -9.7626 C   0  0  0  0  0  0  0  0  0  0  0  0
   18.6936    1.5830   -9.1738 F   0  0  0  0  0  0  0  0  0  0  0  0
   18.8864   -0.6897   -9.7826 C   0  0  0  0  0  0  0  0  0  0  0  0
   19.6122   -1.7074  -10.3957 C   0  0  0  0  0  0  0  0  0  0  0  0
   19.0309   -3.0159  -10.3776 C   0  0  0  0  0  0  0  0  0  0  0  0
   18.5591   -4.0908  -10.3430 N   0  0  0  0  0  0  0  0  0  0  0  0
   20.8211   -1.4161  -10.9743 C   0  0  0  0  0  0  0  0  0  0  0  0
   24.9746    0.0542  -11.5556 C   0  0  0  0  0  0  0  0  0  0  0  0
   26.1354   -0.1769  -10.8823 C   0  0  0  0  0  0  0  0  0  0  0  0
   27.3016    0.0390  -11.7287 C   0  0  2  0  0  0  0  0  0  0  0  0
   28.2438    0.9086  -11.1536 O   0  0  0  0  0  0  0  0  0  0  0  0
   26.7300    0.8175  -12.9175 C   0  0  0  0  0  0  0  0  0  0  0  0
   25.2826    0.4537  -12.9442 C   0  0  2  0  0  0  0  0  0  0  0  0
   24.4661    1.4639  -13.3982 F   0  0  0  0  0  0  0  0  0  0  0  0
  1  2  1  1
  2  3  2  0
  2  4  2  0
  2  5  1  6
  5  6  2  0
  6  7  1  0
  7  8  2  0
  8  9  1  0
  9 10  1  0
 10 11  2  0
 11 12  1  0
 12 13  1  0
 12 14  2  0
 14 15  1  0
 15 16  1  0
 16 17  3  0
 15 18  2  0
  8 19  1  0
 19 20  2  0
 20 21  1  0
 21 22  1  1
 23 21  1  1
 23 24  1  0
 24 25  1  1
 20  5  1  0
 18 10  1  0
 24 19  1  0
M  END
$$$$
