_rank16
     RDKit          3D

 18 20  0  0  0  0  0  0  0  0999 V2000
   23.3846    0.7876   -8.7223 C   0  0  0  0  0  0  0  0  0  0  0  0
   23.0085   -0.4179   -9.9659 S   0  0  1  0  0  6  0  0  0  0  0  0
   23.7829   -1.6623   -9.6604 O   0  0  0  0  0  0  0  0  0  0  0  0
   21.5660   -0.7708   -9.9985 O   0  0  0  0  0  0  0  0  0  0  0  0
   23.4912    0.2250  -11.5438 C   0  0  2  0  0  0  0  0  0  0  0  0
   23.2604   -0.7789  -12.6538 C   0  0  0  0  0  0  0  0  0  0  0  0
   24.1388   -0.2439  -13.7610 C   0  0  0  0  0  0  0  0  0  0  0  0
   25.2072    0.6054  -13.0775 C   0  0  0  0  0  0  0  0  0  0  0  0
   25.0214    0.3188  -11.6115 C   0  0  1  0  0  0  0  0  0  0  0  0
   25.5479    1.3157  -10.7467 N   0  0  0  0  0  0  0  0  0  0  0  0
   26.3387    0.6124   -9.7693 C   0  0  0  0  0  0  0  0  0  0  0  0
   27.0333    1.0183   -8.6534 C   0  0  0  0  0  0  0  0  0  0  0  0
   27.7339    0.1168   -7.8574 C   0  0  0  0  0  0  0  0  0  0  0  0
   28.4168    0.5320   -6.7562 F   0  0  0  0  0  0  0  0  0  0  0  0
   27.7134   -1.1981   -8.2178 C   0  0  0  0  0  0  0  0  0  0  0  0
   27.0336   -1.6718   -9.3291 C   0  0  0  0  0  0  0  0  0  0  0  0
   26.3580   -0.7315  -10.0789 C   0  0  0  0  0  0  0  0  0  0  0  0
   25.6016   -0.9045  -11.2263 O   0  0  0  0  0  0  0  0  0  0  0  0
  2  1  1  1
  2  3  2  0
  2  4  2  0
  5  2  1  1
  5  6  1  0
  6  7  1  1
  7  8  1  1
  8  9  1  6
  9 10  1  1
 10 11  1  0
 11 12  2  0
 12 13  1  0
 13 14  1  0
 13 15  2  0
 15 16  1  0
 16 17  2  0
 17 18  1  0
  9  5  1  0
 17 11  1  0
  9 18  1  0
M  END
$$$$
