_rank7
     RDKit          3D

 18 20  0  0  0  0  0  0  0  0999 V2000
   25.2798   -0.8856   -8.1437 C   0  0  0  0  0  0  0  0  0  0  0  0
   26.1369    0.4451   -8.9411 S   0  0  1  0  0  6  0  0  0  0  0  0
   25.2605    1.6582   -8.8984 O   0  0  0  0  0  0  0  0  0  0  0  0
   27.4185    0.7802   -8.2691 O   0  0  0  0  0  0  0  0  0  0  0  0
   26.4577   -0.0127  -10.6216 C   0  0  2  0  0  0  0  0  0  0  0  0
   27.1549    1.0955  -11.3823 C   0  0  0  0  0  0  0  0  0  0  0  0
   26.9041    0.7071  -12.8210 C   0  0  0  0  0  0  0  0  0  0  0  0
   25.6600   -0.1773  -12.8075 C   0  0  0  0  0  0  0  0  0  0  0  0
   25.1368   -0.0530  -11.4016 C   0  0  1  0  0  0  0  0  0  0  0  0
   24.2914   -1.1194  -10.9930 N   0  0  0  0  0  0  0  0  0  0  0  0
   23.1213   -0.5000  -10.4253 C   0  0  0  0  0  0  0  0  0  0  0  0
   21.9971   -1.0005   -9.8105 C   0  0  0  0  0  0  0  0  0  0  0  0
   20.9865   -0.1677   -9.3391 C   0  0  0  0  0  0  0  0  0  0  0  0
   19.8796   -0.6762   -8.7328 F   0  0  0  0  0  0  0  0  0  0  0  0
   21.1422    1.1768   -9.5051 C   0  0  0  0  0  0  0  0  0  0  0  0
   22.2496    1.7447  -10.1156 C   0  0  0  0  0  0  0  0  0  0  0  0
   23.2175    0.8691  -10.5620 C   0  0  0  0  0  0  0  0  0  0  0  0
   24.4163    1.1396  -11.2010 O   0  0  0  0  0  0  0  0  0  0  0  0
  2  1  1  1
  2  3  2  0
  2  4  2  0
  5  2  1  1
  5  6  1  0
  6  7  1  1
  7  8  1  1
  8  9  1  6
  9 10  1  1
 10 11  1  0
 11 12  2  0
 12 13  1  0
 13 14  1  0
 13 15  2  0
 15 16  1  0
 16 17  2  0
 17 18  1  0
  9  5  1  0
 17 11  1  0
  9 18  1  0
M  END
$$$$
