_rank11
     RDKit          3D

 18 20  0  0  0  0  0  0  0  0999 V2000
   24.1971   -3.4367  -11.3460 C   0  0  0  0  0  0  0  0  0  0  0  0
   24.6691   -1.9669  -10.4753 S   0  0  1  0  0  6  0  0  0  0  0  0
   23.4545   -1.4156   -9.7954 O   0  0  0  0  0  0  0  0  0  0  0  0
   25.6989   -2.2267   -9.4368 O   0  0  0  0  0  0  0  0  0  0  0  0
   25.2965   -0.7924  -11.6429 C   0  0  2  0  0  0  0  0  0  0  0  0
   26.5582   -0.1215  -11.1419 C   0  0  0  0  0  0  0  0  0  0  0  0
   26.6380    1.1095  -12.0148 C   0  0  0  0  0  0  0  0  0  0  0  0
   25.2143    1.3771  -12.4962 C   0  0  0  0  0  0  0  0  0  0  0  0
   24.3694    0.4296  -11.6874 C   0  0  1  0  0  0  0  0  0  0  0  0
   23.1030    0.1360  -12.2609 N   0  0  0  0  0  0  0  0  0  0  0  0
   22.1392    0.3252  -11.2072 C   0  0  0  0  0  0  0  0  0  0  0  0
   20.7788    0.1350  -11.1319 C   0  0  0  0  0  0  0  0  0  0  0  0
   20.0645    0.3996   -9.9671 C   0  0  0  0  0  0  0  0  0  0  0  0
   18.7189    0.2070   -9.9065 F   0  0  0  0  0  0  0  0  0  0  0  0
   20.7585    0.8588   -8.8868 C   0  0  0  0  0  0  0  0  0  0  0  0
   22.1282    1.0715   -8.8969 C   0  0  0  0  0  0  0  0  0  0  0  0
   22.7814    0.7917  -10.0793 C   0  0  0  0  0  0  0  0  0  0  0  0
   24.1277    0.9051  -10.3847 O   0  0  0  0  0  0  0  0  0  0  0  0
  2  1  1  6
  2  3  2  0
  2  4  2  0
  5  2  1  1
  5  6  1  0
  6  7  1  1
  7  8  1  1
  8  9  1  6
  9 10  1  6
 10 11  1  0
 11 12  2  0
 12 13  1  0
 13 14  1  0
 13 15  2  0
 15 16  1  0
 16 17  2  0
 17 18  1  0
  9  5  1  0
 17 11  1  0
  9 18  1  0
M  END
$$$$
