_rank13
     RDKit          3D

 18 20  0  0  0  0  0  0  0  0999 V2000
   23.9003    0.7010   -8.6732 C   0  0  0  0  0  0  0  0  0  0  0  0
   23.0178   -0.2235   -9.9012 S   0  0  1  0  0  6  0  0  0  0  0  0
   23.3057   -1.6772   -9.6887 O   0  0  0  0  0  0  0  0  0  0  0  0
   21.5479   -0.0284   -9.8129 O   0  0  0  0  0  0  0  0  0  0  0  0
   23.5813    0.2788  -11.5032 C   0  0  2  0  0  0  0  0  0  0  0  0
   23.2960   -0.7735  -12.5542 C   0  0  0  0  0  0  0  0  0  0  0  0
   24.2358   -0.3789  -13.6698 C   0  0  0  0  0  0  0  0  0  0  0  0
   25.3528    0.4284  -13.0135 C   0  0  0  0  0  0  0  0  0  0  0  0
   25.1152    0.2510  -11.5377 C   0  0  1  0  0  0  0  0  0  0  0  0
   25.6998    1.2579  -10.7234 N   0  0  0  0  0  0  0  0  0  0  0  0
   26.4133    0.5602   -9.6845 C   0  0  0  0  0  0  0  0  0  0  0  0
   27.1143    0.9823   -8.5787 C   0  0  0  0  0  0  0  0  0  0  0  0
   27.7262    0.0827   -7.7107 C   0  0  0  0  0  0  0  0  0  0  0  0
   28.4167    0.5139   -6.6205 F   0  0  0  0  0  0  0  0  0  0  0  0
   27.6110   -1.2472   -7.9892 C   0  0  0  0  0  0  0  0  0  0  0  0
   26.9193   -1.7376   -9.0859 C   0  0  0  0  0  0  0  0  0  0  0  0
   26.3344   -0.7983   -9.9095 C   0  0  0  0  0  0  0  0  0  0  0  0
   25.5906   -0.9859  -11.0628 O   0  0  0  0  0  0  0  0  0  0  0  0
  2  1  1  1
  2  3  2  0
  2  4  2  0
  5  2  1  1
  5  6  1  0
  6  7  1  1
  7  8  1  1
  8  9  1  6
  9 10  1  1
 10 11  1  0
 11 12  2  0
 12 13  1  0
 13 14  1  0
 13 15  2  0
 15 16  1  0
 16 17  2  0
 17 18  1  0
  9  5  1  0
 17 11  1  0
  9 18  1  0
M  END
$$$$
