_rank9
     RDKit          3D

 18 20  0  0  0  0  0  0  0  0999 V2000
   27.1463    0.9715   -8.4501 C   0  0  0  0  0  0  0  0  0  0  0  0
   25.5402    0.3219   -8.8238 S   0  0  1  0  0  6  0  0  0  0  0  0
   25.1706   -0.6569   -7.7529 O   0  0  0  0  0  0  0  0  0  0  0  0
   24.4949    1.3765   -8.8630 O   0  0  0  0  0  0  0  0  0  0  0  0
   25.6095   -0.4943  -10.3940 C   0  0  2  0  0  0  0  0  0  0  0  0
   26.3989    0.3061  -11.4086 C   0  0  0  0  0  0  0  0  0  0  0  0
   25.9433   -0.2939  -12.7186 C   0  0  0  0  0  0  0  0  0  0  0  0
   24.5785   -0.9197  -12.4429 C   0  0  0  0  0  0  0  0  0  0  0  0
   24.2279   -0.4404  -11.0597 C   0  0  1  0  0  0  0  0  0  0  0  0
   23.2644   -1.2398  -10.3877 N   0  0  0  0  0  0  0  0  0  0  0  0
   22.2756   -0.3230   -9.8806 C   0  0  0  0  0  0  0  0  0  0  0  0
   21.1525   -0.4869   -9.1034 C   0  0  0  0  0  0  0  0  0  0  0  0
   20.3456    0.5888   -8.7444 C   0  0  0  0  0  0  0  0  0  0  0  0
   19.2374    0.4126   -7.9750 F   0  0  0  0  0  0  0  0  0  0  0  0
   20.7027    1.8272   -9.1897 C   0  0  0  0  0  0  0  0  0  0  0  0
   21.8210    2.0599   -9.9752 C   0  0  0  0  0  0  0  0  0  0  0  0
   22.5814    0.9553  -10.2984 C   0  0  0  0  0  0  0  0  0  0  0  0
   23.7375    0.8791  -11.0575 O   0  0  0  0  0  0  0  0  0  0  0  0
  2  1  1  1
  2  3  2  0
  2  4  2  0
  5  2  1  1
  5  6  1  0
  6  7  1  1
  7  8  1  1
  8  9  1  6
  9 10  1  1
 10 11  1  0
 11 12  2  0
 12 13  1  0
 13 14  1  0
 13 15  2  0
 15 16  1  0
 16 17  2  0
 17 18  1  0
  9  5  1  0
 17 11  1  0
  9 18  1  0
M  END
$$$$
