_rank5
     RDKit          3D

 18 20  0  0  0  0  0  0  0  0999 V2000
   27.6949   -0.5792   -8.1956 C   0  0  0  0  0  0  0  0  0  0  0  0
   26.2154   -0.2281   -9.1061 S   0  0  1  0  0  6  0  0  0  0  0  0
   25.2722   -1.3768   -8.9269 O   0  0  0  0  0  0  0  0  0  0  0  0
   25.5344    1.0039   -8.6319 O   0  0  0  0  0  0  0  0  0  0  0  0
   26.6321   -0.0464  -10.8177 C   0  0  2  0  0  0  0  0  0  0  0  0
   27.1574    1.3405  -11.1237 C   0  0  0  0  0  0  0  0  0  0  0  0
   26.9949    1.4238  -12.6238 C   0  0  0  0  0  0  0  0  0  0  0  0
   25.9066    0.4166  -12.9859 C   0  0  0  0  0  0  0  0  0  0  0  0
   25.3473   -0.0131  -11.6561 C   0  0  1  0  0  0  0  0  0  0  0  0
   24.6750   -1.2646  -11.6782 N   0  0  0  0  0  0  0  0  0  0  0  0
   23.4123   -1.0459  -11.0201 C   0  0  0  0  0  0  0  0  0  0  0  0
   22.3717   -1.8795  -10.6816 C   0  0  0  0  0  0  0  0  0  0  0  0
   21.2343   -1.4069  -10.0334 C   0  0  0  0  0  0  0  0  0  0  0  0
   20.2123   -2.2425   -9.7043 F   0  0  0  0  0  0  0  0  0  0  0  0
   21.1778   -0.0768   -9.7385 C   0  0  0  0  0  0  0  0  0  0  0  0
   22.1912    0.8157  -10.0520 C   0  0  0  0  0  0  0  0  0  0  0  0
   23.2927    0.2887  -10.6937 C   0  0  0  0  0  0  0  0  0  0  0  0
   24.4438    0.9269  -11.1253 O   0  0  0  0  0  0  0  0  0  0  0  0
  2  1  1  1
  2  3  2  0
  2  4  2  0
  5  2  1  1
  5  6  1  0
  6  7  1  1
  7  8  1  1
  8  9  1  6
  9 10  1  6
 10 11  1  0
 11 12  2  0
 12 13  1  0
 13 14  1  0
 13 15  2  0
 15 16  1  0
 16 17  2  0
 17 18  1  0
  9  5  1  0
 17 11  1  0
  9 18  1  0
M  END
$$$$
