_rank3
     RDKit          3D

 25 28  0  0  0  0  0  0  0  0999 V2000
   22.1986    1.0006   -9.7460 F   0  0  0  0  0  0  0  0  0  0  0  0
   21.1257    0.3016  -10.2192 C   0  0  0  0  0  0  0  0  0  0  0  0
   19.8735    0.7317   -9.8542 C   0  0  0  0  0  0  0  0  0  0  0  0
   18.7419    0.0694  -10.2984 C   0  0  0  0  0  0  0  0  0  0  0  0
   18.9082   -1.0327  -11.1162 C   0  0  0  0  0  0  0  0  0  0  0  0
   17.3346   -1.9261  -11.7137 Br  0  0  0  0  0  0  0  0  0  0  0  0
   20.1912   -1.4645  -11.4834 C   0  0  0  0  0  0  0  0  0  0  0  0
   20.2042   -2.5551  -12.2808 F   0  0  0  0  0  0  0  0  0  0  0  0
   21.3127   -0.8143  -11.0481 C   0  0  0  0  0  0  0  0  0  0  0  0
   22.6808   -1.2010  -11.3789 C   0  0  2  0  0  0  0  0  0  0  0  0
   23.4751   -1.8982  -10.3276 C   0  0  0  0  0  0  0  0  0  0  0  0
   24.4050   -1.0995   -9.5223 C   0  0  1  0  0  0  0  0  0  0  0  0
   25.8439   -1.3467   -9.6529 C   0  0  0  0  0  0  0  0  0  0  0  0
   26.4868   -2.0789  -10.6007 C   0  0  0  0  0  0  0  0  0  0  0  0
   27.8778   -2.2134  -10.5779 C   0  0  0  0  0  0  0  0  0  0  0  0
   28.6366   -1.6096   -9.5967 C   0  0  0  0  0  0  0  0  0  0  0  0
   27.9965   -0.8705   -8.6384 C   0  0  0  0  0  0  0  0  0  0  0  0
   29.0276   -0.0173   -7.2580 Br  0  0  0  0  0  0  0  0  0  0  0  0
   26.6270   -0.7339   -8.6550 C   0  0  0  0  0  0  0  0  0  0  0  0
   24.2259    0.3384   -9.7900 N   0  0  0  0  0  0  0  0  0  0  0  0
   24.1075    0.7079  -11.1507 C   0  0  0  0  0  0  0  0  0  0  0  0
   24.6167    1.7174  -11.9000 N   0  0  0  0  0  0  0  0  0  0  0  0
   24.1810    1.5830  -13.1425 N   0  0  0  0  0  0  0  0  0  0  0  0
   23.4150    0.5045  -13.1512 N   0  0  0  0  0  0  0  0  0  0  0  0
   23.3503   -0.0507  -11.9526 N   0  0  0  0  0  0  0  0  0  0  0  0
  1  2  1  0
  2  3  2  0
  3  4  1  0
  4  5  2  0
  5  6  1  0
  5  7  1  0
  7  8  1  0
  7  9  2  0
 10  9  1  1
 11 10  1  1
 11 12  1  0
 12 13  1  6
 13 14  2  0
 14 15  1  0
 15 16  2  0
 16 17  1  0
 17 18  1  0
 17 19  2  0
 12 20  1  0
 20 21  1  0
 21 22  2  0
 22 23  1  0
 23 24  2  0
 24 25  1  0
  9  2  1  0
 25 10  1  0
 19 13  1  0
 25 21  1  0
M  END
$$$$
