_rank19
     RDKit          3D

 25 28  0  0  0  0  0  0  0  0999 V2000
   24.4105   -1.2341  -12.1838 F   0  0  0  0  0  0  0  0  0  0  0  0
   25.4651   -1.2058  -11.3174 C   0  0  0  0  0  0  0  0  0  0  0  0
   26.7201   -1.4162  -11.8341 C   0  0  0  0  0  0  0  0  0  0  0  0
   27.8340   -1.4009  -11.0120 C   0  0  0  0  0  0  0  0  0  0  0  0
   27.6470   -1.1688   -9.6621 C   0  0  0  0  0  0  0  0  0  0  0  0
   29.1964   -1.1526   -8.5528 Br  0  0  0  0  0  0  0  0  0  0  0  0
   26.3613   -0.9551   -9.1439 C   0  0  0  0  0  0  0  0  0  0  0  0
   26.3269   -0.7461   -7.8095 F   0  0  0  0  0  0  0  0  0  0  0  0
   25.2573   -0.9688   -9.9508 C   0  0  0  0  0  0  0  0  0  0  0  0
   23.8874   -0.7612   -9.4915 C   0  0  2  0  0  0  0  0  0  0  0  0
   22.8260   -1.6365  -10.0655 C   0  0  0  0  0  0  0  0  0  0  0  0
   22.0246   -1.1113  -11.1759 C   0  0  1  0  0  0  0  0  0  0  0  0
   20.5957   -0.8654  -10.9608 C   0  0  0  0  0  0  0  0  0  0  0  0
   19.9931    0.2862  -10.5628 C   0  0  0  0  0  0  0  0  0  0  0  0
   18.6056    0.3492  -10.4057 C   0  0  0  0  0  0  0  0  0  0  0  0
   17.8098   -0.7511  -10.6489 C   0  0  0  0  0  0  0  0  0  0  0  0
   18.4092   -1.9148  -11.0501 C   0  0  0  0  0  0  0  0  0  0  0  0
   17.3259   -3.4650  -11.3964 Br  0  0  0  0  0  0  0  0  0  0  0  0
   19.7750   -1.9837  -11.2068 C   0  0  0  0  0  0  0  0  0  0  0  0
   22.5762    0.1666  -11.6598 N   0  0  0  0  0  0  0  0  0  0  0  0
   22.9458    1.1015  -10.6641 C   0  0  0  0  0  0  0  0  0  0  0  0
   22.7904    2.4420  -10.5272 N   0  0  0  0  0  0  0  0  0  0  0  0
   23.3296    2.8148   -9.3774 N   0  0  0  0  0  0  0  0  0  0  0  0
   23.8083    1.7150   -8.8195 N   0  0  0  0  0  0  0  0  0  0  0  0
   23.5902    0.6547   -9.5793 N   0  0  0  0  0  0  0  0  0  0  0  0
  1  2  1  0
  2  3  2  0
  3  4  1  0
  4  5  2  0
  5  6  1  0
  5  7  1  0
  7  8  1  0
  7  9  2  0
 10  9  1  6
 11 10  1  1
 11 12  1  0
 12 13  1  1
 13 14  2  0
 14 15  1  0
 15 16  2  0
 16 17  1  0
 17 18  1  0
 17 19  2  0
 12 20  1  0
 20 21  1  0
 21 22  2  0
 22 23  1  0
 23 24  2  0
 24 25  1  0
  9  2  1  0
 25 10  1  0
 19 13  1  0
 25 21  1  0
M  END
$$$$
