_rank8
     RDKit          3D

 25 28  0  0  0  0  0  0  0  0999 V2000
   26.5040    0.8552  -13.2591 F   0  0  0  0  0  0  0  0  0  0  0  0
   26.8444    0.5994  -11.9621 C   0  0  0  0  0  0  0  0  0  0  0  0
   28.1417    0.8441  -11.5836 C   0  0  0  0  0  0  0  0  0  0  0  0
   28.5548    0.6070  -10.2836 C   0  0  0  0  0  0  0  0  0  0  0  0
   27.6277    0.1189   -9.3818 C   0  0  0  0  0  0  0  0  0  0  0  0
   28.2219   -0.1985   -7.5993 Br  0  0  0  0  0  0  0  0  0  0  0  0
   26.3050   -0.1279   -9.7780 C   0  0  0  0  0  0  0  0  0  0  0  0
   25.5103   -0.6072   -8.7960 F   0  0  0  0  0  0  0  0  0  0  0  0
   25.8910    0.1045  -11.0603 C   0  0  0  0  0  0  0  0  0  0  0  0
   24.5374   -0.1302  -11.5539 C   0  0  2  0  0  0  0  0  0  0  0  0
   23.4279    0.6366  -10.9192 C   0  0  0  0  0  0  0  0  0  0  0  0
   22.6448   -0.0243   -9.8697 C   0  0  1  0  0  0  0  0  0  0  0  0
   21.2322   -0.3214  -10.1242 C   0  0  0  0  0  0  0  0  0  0  0  0
   20.6814   -1.4976  -10.5256 C   0  0  0  0  0  0  0  0  0  0  0  0
   19.3022   -1.6099  -10.7231 C   0  0  0  0  0  0  0  0  0  0  0  0
   18.4625   -0.5349  -10.5175 C   0  0  0  0  0  0  0  0  0  0  0  0
   19.0097    0.6532  -10.1133 C   0  0  0  0  0  0  0  0  0  0  0  0
   17.8643    2.1692   -9.8188 Br  0  0  0  0  0  0  0  0  0  0  0  0
   20.3669    0.7708   -9.9168 C   0  0  0  0  0  0  0  0  0  0  0  0
   23.2568   -1.3106   -9.4928 N   0  0  0  0  0  0  0  0  0  0  0  0
   23.6822   -2.1341  -10.5619 C   0  0  0  0  0  0  0  0  0  0  0  0
   23.5967   -3.4634  -10.8181 N   0  0  0  0  0  0  0  0  0  0  0  0
   24.1641   -3.7055  -11.9891 N   0  0  0  0  0  0  0  0  0  0  0  0
   24.5907   -2.5381  -12.4418 N   0  0  0  0  0  0  0  0  0  0  0  0
   24.3123   -1.5614  -11.5947 N   0  0  0  0  0  0  0  0  0  0  0  0
  1  2  1  0
  2  3  2  0
  3  4  1  0
  4  5  2  0
  5  6  1  0
  5  7  1  0
  7  8  1  0
  7  9  2  0
 10  9  1  1
 11 10  1  1
 11 12  1  0
 12 13  1  6
 13 14  2  0
 14 15  1  0
 15 16  2  0
 16 17  1  0
 17 18  1  0
 17 19  2  0
 12 20  1  0
 20 21  1  0
 21 22  2  0
 22 23  1  0
 23 24  2  0
 24 25  1  0
  9  2  1  0
 25 10  1  0
 19 13  1  0
 25 21  1  0
M  END
$$$$
