_rank2
     RDKit          3D

 25 28  0  0  0  0  0  0  0  0999 V2000
   25.5965    0.0377   -7.0376 F   0  0  0  0  0  0  0  0  0  0  0  0
   26.2825   -0.2244   -8.1884 C   0  0  0  0  0  0  0  0  0  0  0  0
   27.6254   -0.4923   -8.0828 C   0  0  0  0  0  0  0  0  0  0  0  0
   28.3816   -0.7665   -9.2096 C   0  0  0  0  0  0  0  0  0  0  0  0
   27.7485   -0.7628  -10.4386 C   0  0  0  0  0  0  0  0  0  0  0  0
   28.8120   -1.1435  -11.9733 Br  0  0  0  0  0  0  0  0  0  0  0  0
   26.3766   -0.4879  -10.5362 C   0  0  0  0  0  0  0  0  0  0  0  0
   25.8924   -0.5135  -11.7973 F   0  0  0  0  0  0  0  0  0  0  0  0
   25.6244   -0.2165   -9.4269 C   0  0  0  0  0  0  0  0  0  0  0  0
   24.1961    0.0841   -9.4424 C   0  0  2  0  0  0  0  0  0  0  0  0
   23.2485   -1.0552   -9.2806 C   0  0  0  0  0  0  0  0  0  0  0  0
   22.6520   -1.6333  -10.4894 C   0  0  1  0  0  0  0  0  0  0  0  0
   21.2077   -1.4958  -10.6991 C   0  0  0  0  0  0  0  0  0  0  0  0
   20.3161   -2.4585  -11.0541 C   0  0  0  0  0  0  0  0  0  0  0  0
   18.9612   -2.1539  -11.2127 C   0  0  0  0  0  0  0  0  0  0  0  0
   18.4905   -0.8723  -11.0146 C   0  0  0  0  0  0  0  0  0  0  0  0
   19.3824    0.1029  -10.6569 C   0  0  0  0  0  0  0  0  0  0  0  0
   18.7557    1.8984  -10.3740 Br  0  0  0  0  0  0  0  0  0  0  0  0
   20.7179   -0.1902  -10.4989 C   0  0  0  0  0  0  0  0  0  0  0  0
   23.2811   -1.0766  -11.7001 N   0  0  0  0  0  0  0  0  0  0  0  0
   23.4745    0.3250  -11.7123 C   0  0  0  0  0  0  0  0  0  0  0  0
   23.3000    1.2914  -12.6480 N   0  0  0  0  0  0  0  0  0  0  0  0
   23.6329    2.4578  -12.1183 N   0  0  0  0  0  0  0  0  0  0  0  0
   24.0061    2.2059  -10.8744 N   0  0  0  0  0  0  0  0  0  0  0  0
   23.9209    0.9156  -10.5971 N   0  0  0  0  0  0  0  0  0  0  0  0
  1  2  1  0
  2  3  2  0
  3  4  1  0
  4  5  2  0
  5  6  1  0
  5  7  1  0
  7  8  1  0
  7  9  2  0
 10  9  1  6
 11 10  1  1
 11 12  1  0
 12 13  1  6
 13 14  2  0
 14 15  1  0
 15 16  2  0
 16 17  1  0
 17 18  1  0
 17 19  2  0
 12 20  1  0
 20 21  1  0
 21 22  2  0
 22 23  1  0
 23 24  2  0
 24 25  1  0
  9  2  1  0
 25 10  1  0
 19 13  1  0
 25 21  1  0
M  END
$$$$
