_rank20
     RDKit          3D

 25 28  0  0  0  0  0  0  0  0999 V2000
   23.8812    2.1651  -10.4813 F   0  0  0  0  0  0  0  0  0  0  0  0
   24.9450    1.4104  -10.0782 C   0  0  0  0  0  0  0  0  0  0  0  0
   25.9047    2.0214   -9.3089 C   0  0  0  0  0  0  0  0  0  0  0  0
   27.0098    1.3151   -8.8656 C   0  0  0  0  0  0  0  0  0  0  0  0
   27.1187   -0.0171   -9.2184 C   0  0  0  0  0  0  0  0  0  0  0  0
   28.6490   -0.9664   -8.5952 Br  0  0  0  0  0  0  0  0  0  0  0  0
   26.1334   -0.6323  -10.0046 C   0  0  0  0  0  0  0  0  0  0  0  0
   26.3711   -1.9343  -10.2763 F   0  0  0  0  0  0  0  0  0  0  0  0
   25.0396    0.0601  -10.4452 C   0  0  0  0  0  0  0  0  0  0  0  0
   23.9743   -0.5026  -11.2695 C   0  0  2  0  0  0  0  0  0  0  0  0
   22.7029    0.2683  -11.3762 C   0  0  0  0  0  0  0  0  0  0  0  0
   21.5850   -0.1218  -10.5106 C   0  0  1  0  0  0  0  0  0  0  0  0
   20.3750   -0.6745  -11.1262 C   0  0  0  0  0  0  0  0  0  0  0  0
   20.2860   -1.5716  -12.1436 C   0  0  0  0  0  0  0  0  0  0  0  0
   19.0405   -1.9971  -12.6140 C   0  0  0  0  0  0  0  0  0  0  0  0
   17.8692   -1.5210  -12.0621 C   0  0  0  0  0  0  0  0  0  0  0  0
   17.9505   -0.6171  -11.0371 C   0  0  0  0  0  0  0  0  0  0  0  0
   16.3349    0.0642  -10.2481 Br  0  0  0  0  0  0  0  0  0  0  0  0
   19.1737   -0.1939  -10.5689 C   0  0  0  0  0  0  0  0  0  0  0  0
   22.0162   -1.1234   -9.5196 N   0  0  0  0  0  0  0  0  0  0  0  0
   22.8186   -2.1799  -10.0116 C   0  0  0  0  0  0  0  0  0  0  0  0
   22.8436   -3.5197   -9.8015 N   0  0  0  0  0  0  0  0  0  0  0  0
   23.8128   -4.0445  -10.5344 N   0  0  0  0  0  0  0  0  0  0  0  0
   24.3724   -3.0370  -11.1837 N   0  0  0  0  0  0  0  0  0  0  0  0
   23.7891   -1.8880  -10.8861 N   0  0  0  0  0  0  0  0  0  0  0  0
  1  2  1  0
  2  3  2  0
  3  4  1  0
  4  5  2  0
  5  6  1  0
  5  7  1  0
  7  8  1  0
  7  9  2  0
 10  9  1  1
 11 10  1  1
 11 12  1  0
 12 13  1  6
 13 14  2  0
 14 15  1  0
 15 16  2  0
 16 17  1  0
 17 18  1  0
 17 19  2  0
 12 20  1  0
 20 21  1  0
 21 22  2  0
 22 23  1  0
 23 24  2  0
 24 25  1  0
  9  2  1  0
 25 10  1  0
 19 13  1  0
 25 21  1  0
M  END
$$$$
