_rank1
     RDKit          3D

 25 28  0  0  0  0  0  0  0  0999 V2000
   25.1954   -1.2495  -11.8416 F   0  0  0  0  0  0  0  0  0  0  0  0
   25.9869   -1.1876  -10.7310 C   0  0  0  0  0  0  0  0  0  0  0  0
   27.2611   -1.6907  -10.8277 C   0  0  0  0  0  0  0  0  0  0  0  0
   28.1171   -1.6598   -9.7400 C   0  0  0  0  0  0  0  0  0  0  0  0
   27.6538   -1.1104   -8.5590 C   0  0  0  0  0  0  0  0  0  0  0  0
   28.8518   -1.0800   -7.0774 Br  0  0  0  0  0  0  0  0  0  0  0  0
   26.3508   -0.5992   -8.4701 C   0  0  0  0  0  0  0  0  0  0  0  0
   26.0313   -0.0981   -7.2567 F   0  0  0  0  0  0  0  0  0  0  0  0
   25.5008   -0.6267   -9.5409 C   0  0  0  0  0  0  0  0  0  0  0  0
   24.1312   -0.1218   -9.5303 C   0  0  2  0  0  0  0  0  0  0  0  0
   23.0260   -1.1221   -9.5316 C   0  0  0  0  0  0  0  0  0  0  0  0
   22.3885   -1.4441  -10.8127 C   0  0  1  0  0  0  0  0  0  0  0  0
   20.9856   -1.0715  -11.0165 C   0  0  0  0  0  0  0  0  0  0  0  0
   20.4924    0.0256  -11.6496 C   0  0  0  0  0  0  0  0  0  0  0  0
   19.1137    0.2296  -11.7559 C   0  0  0  0  0  0  0  0  0  0  0  0
   18.2162   -0.6727  -11.2235 C   0  0  0  0  0  0  0  0  0  0  0  0
   18.7051   -1.7802  -10.5842 C   0  0  0  0  0  0  0  0  0  0  0  0
   17.4784   -3.0553   -9.8320 Br  0  0  0  0  0  0  0  0  0  0  0  0
   20.0616   -1.9873  -10.4760 C   0  0  0  0  0  0  0  0  0  0  0  0
   23.1259   -0.8317  -11.9318 N   0  0  0  0  0  0  0  0  0  0  0  0
   23.5181    0.5162  -11.7548 C   0  0  0  0  0  0  0  0  0  0  0  0
   23.5112    1.6116  -12.5548 N   0  0  0  0  0  0  0  0  0  0  0  0
   23.9919    2.6377  -11.8708 N   0  0  0  0  0  0  0  0  0  0  0  0
   24.2887    2.1738  -10.6680 N   0  0  0  0  0  0  0  0  0  0  0  0
   24.0117    0.8847  -10.5664 N   0  0  0  0  0  0  0  0  0  0  0  0
  1  2  1  0
  2  3  2  0
  3  4  1  0
  4  5  2  0
  5  6  1  0
  5  7  1  0
  7  8  1  0
  7  9  2  0
 10  9  1  6
 11 10  1  1
 11 12  1  0
 12 13  1  1
 13 14  2  0
 14 15  1  0
 15 16  2  0
 16 17  1  0
 17 18  1  0
 17 19  2  0
 12 20  1  0
 20 21  1  0
 21 22  2  0
 22 23  1  0
 23 24  2  0
 24 25  1  0
  9  2  1  0
 25 10  1  0
 19 13  1  0
 25 21  1  0
M  END
$$$$
