_rank17
     RDKit          3D

 25 28  0  0  0  0  0  0  0  0999 V2000
   21.7153    1.0054  -11.3463 F   0  0  0  0  0  0  0  0  0  0  0  0
   20.6601    0.3133  -10.8257 C   0  0  0  0  0  0  0  0  0  0  0  0
   19.4360    0.9360  -10.8081 C   0  0  0  0  0  0  0  0  0  0  0  0
   18.3234    0.2918  -10.2945 C   0  0  0  0  0  0  0  0  0  0  0  0
   18.4796   -0.9905   -9.8021 C   0  0  0  0  0  0  0  0  0  0  0  0
   16.9325   -1.8546   -9.1012 Br  0  0  0  0  0  0  0  0  0  0  0  0
   19.7338   -1.6179   -9.8244 C   0  0  0  0  0  0  0  0  0  0  0  0
   19.7407   -2.8662   -9.3073 F   0  0  0  0  0  0  0  0  0  0  0  0
   20.8364   -0.9870  -10.3305 C   0  0  0  0  0  0  0  0  0  0  0  0
   22.1752   -1.5659  -10.3858 C   0  0  2  0  0  0  0  0  0  0  0  0
   23.2125   -0.9960   -9.4795 C   0  0  0  0  0  0  0  0  0  0  0  0
   24.1399   -0.0026  -10.0310 C   0  0  1  0  0  0  0  0  0  0  0  0
   25.5604   -0.3471  -10.1404 C   0  0  0  0  0  0  0  0  0  0  0  0
   26.2720   -0.6258  -11.2645 C   0  0  0  0  0  0  0  0  0  0  0  0
   27.6324   -0.9377  -11.1899 C   0  0  0  0  0  0  0  0  0  0  0  0
   28.2908   -0.9718   -9.9780 C   0  0  0  0  0  0  0  0  0  0  0  0
   27.5809   -0.6923   -8.8412 C   0  0  0  0  0  0  0  0  0  0  0  0
   28.4714   -0.7323   -7.1376 Br  0  0  0  0  0  0  0  0  0  0  0  0
   26.2410   -0.3844   -8.9075 C   0  0  0  0  0  0  0  0  0  0  0  0
   23.7267    0.4022  -11.3863 N   0  0  0  0  0  0  0  0  0  0  0  0
   23.3465   -0.6443  -12.2593 C   0  0  0  0  0  0  0  0  0  0  0  0
   23.5892   -0.9153  -13.5661 N   0  0  0  0  0  0  0  0  0  0  0  0
   22.9858   -2.0504  -13.8816 N   0  0  0  0  0  0  0  0  0  0  0  0
   22.3822   -2.4668  -12.7805 N   0  0  0  0  0  0  0  0  0  0  0  0
   22.5830   -1.6315  -11.7751 N   0  0  0  0  0  0  0  0  0  0  0  0
  1  2  1  0
  2  3  2  0
  3  4  1  0
  4  5  2  0
  5  6  1  0
  5  7  1  0
  7  8  1  0
  7  9  2  0
 10  9  1  6
 11 10  1  1
 11 12  1  0
 12 13  1  6
 13 14  2  0
 14 15  1  0
 15 16  2  0
 16 17  1  0
 17 18  1  0
 17 19  2  0
 12 20  1  0
 20 21  1  0
 21 22  2  0
 22 23  1  0
 23 24  2  0
 24 25  1  0
  9  2  1  0
 25 10  1  0
 19 13  1  0
 25 21  1  0
M  END
$$$$
