_rank11
     RDKit          3D

 25 28  0  0  0  0  0  0  0  0999 V2000
   19.6654   -3.3002   -9.7261 F   0  0  0  0  0  0  0  0  0  0  0  0
   19.4282   -1.9704   -9.9236 C   0  0  0  0  0  0  0  0  0  0  0  0
   18.1439   -1.5904  -10.2274 C   0  0  0  0  0  0  0  0  0  0  0  0
   17.8331   -0.2581  -10.4400 C   0  0  0  0  0  0  0  0  0  0  0  0
   18.8486    0.6743  -10.3382 C   0  0  0  0  0  0  0  0  0  0  0  0
   18.3942    2.5010  -10.6352 Br  0  0  0  0  0  0  0  0  0  0  0  0
   20.1572    0.2764  -10.0275 C   0  0  0  0  0  0  0  0  0  0  0  0
   21.0474    1.2910   -9.9654 F   0  0  0  0  0  0  0  0  0  0  0  0
   20.4703   -1.0379   -9.8163 C   0  0  0  0  0  0  0  0  0  0  0  0
   21.8046   -1.5349   -9.4948 C   0  0  2  0  0  0  0  0  0  0  0  0
   22.7402   -0.6041   -8.8016 C   0  0  0  0  0  0  0  0  0  0  0  0
   23.7264    0.1151   -9.6149 C   0  0  1  0  0  0  0  0  0  0  0  0
   25.1488   -0.1867   -9.4301 C   0  0  0  0  0  0  0  0  0  0  0  0
   25.7984   -0.4933   -8.2760 C   0  0  0  0  0  0  0  0  0  0  0  0
   27.1711   -0.7565   -8.2771 C   0  0  0  0  0  0  0  0  0  0  0  0
   27.9046   -0.7129   -9.4447 C   0  0  0  0  0  0  0  0  0  0  0  0
   27.2576   -0.4047  -10.6112 C   0  0  0  0  0  0  0  0  0  0  0  0
   28.2537   -0.3364  -12.2543 Br  0  0  0  0  0  0  0  0  0  0  0  0
   25.9060   -0.1446  -10.6173 C   0  0  0  0  0  0  0  0  0  0  0  0
   23.4643   -0.0841  -11.0512 N   0  0  0  0  0  0  0  0  0  0  0  0
   23.1761   -1.4098  -11.4530 C   0  0  0  0  0  0  0  0  0  0  0  0
   23.5576   -2.1794  -12.5027 N   0  0  0  0  0  0  0  0  0  0  0  0
   22.9869   -3.3679  -12.3851 N   0  0  0  0  0  0  0  0  0  0  0  0
   22.2657   -3.3237  -11.2770 N   0  0  0  0  0  0  0  0  0  0  0  0
   22.3602   -2.1440  -10.6868 N   0  0  0  0  0  0  0  0  0  0  0  0
  1  2  1  0
  2  3  2  0
  3  4  1  0
  4  5  2  0
  5  6  1  0
  5  7  1  0
  7  8  1  0
  7  9  2  0
 10  9  1  6
 11 10  1  1
 11 12  1  0
 12 13  1  1
 13 14  2  0
 14 15  1  0
 15 16  2  0
 16 17  1  0
 17 18  1  0
 17 19  2  0
 12 20  1  0
 20 21  1  0
 21 22  2  0
 22 23  1  0
 23 24  2  0
 24 25  1  0
  9  2  1  0
 25 10  1  0
 19 13  1  0
 25 21  1  0
M  END
$$$$
