_rank5
     RDKit          3D

 24 26  0  0  0  0  0  0  0  0999 V2000
   27.1485   -0.0118  -12.4416 O   0  0  0  0  0  0  0  0  0  0  0  0
   25.9591   -0.0173  -12.0999 N   0  0  0  0  0  4  0  0  0  0  0  0
   25.0396    0.0139  -13.1228 O   0  0  0  0  0  1  0  0  0  0  0  0
   25.6249   -0.0229  -10.7359 C   0  0  0  0  0  0  0  0  0  0  0  0
   24.3447   -0.1504  -10.2994 C   0  0  0  0  0  0  0  0  0  0  0  0
   23.2667   -0.2762  -11.2062 N   0  0  0  0  0  0  0  0  0  0  0  0
   21.8989   -0.2812  -10.9560 C   0  0  0  0  0  0  0  0  0  0  0  0
   21.3598    0.7615  -10.1985 C   0  0  0  0  0  0  0  0  0  0  0  0
   20.0210    0.7694   -9.9066 C   0  0  0  0  0  0  0  0  0  0  0  0
   19.4732    1.7792   -9.1642 F   0  0  0  0  0  0  0  0  0  0  0  0
   19.1612   -0.2207  -10.3321 C   0  0  0  0  0  0  0  0  0  0  0  0
   19.6848   -1.2687  -11.0899 C   0  0  0  0  0  0  0  0  0  0  0  0
   18.7380   -2.3233  -11.5407 C   0  0  1  0  0  0  0  0  0  0  0  0
   18.3975   -2.0583  -12.8467 F   0  0  0  0  0  0  0  0  0  0  0  0
   19.3682   -3.5455  -11.3917 F   0  0  0  0  0  0  0  0  0  0  0  0
   17.6175   -2.2345  -10.7334 F   0  0  0  0  0  0  0  0  0  0  0  0
   21.0277   -1.2616  -11.3728 C   0  0  0  0  0  0  0  0  0  0  0  0
   24.0488   -0.1043   -8.9199 C   0  0  0  0  0  0  0  0  0  0  0  0
   25.0482    0.0690   -7.9999 C   0  0  0  0  0  0  0  0  0  0  0  0
   26.3532    0.1987   -8.4336 C   0  0  0  0  0  0  0  0  0  0  0  0
   27.5308    0.3776   -7.8218 N   0  0  0  0  0  0  0  0  0  0  0  0
   28.4558    0.4352   -8.7431 O   0  0  0  0  0  0  0  0  0  0  0  0
   27.9550    0.3041   -9.9338 N   0  0  0  0  0  0  0  0  0  0  0  0
   26.6407    0.1544   -9.7756 C   0  0  0  0  0  0  0  0  0  0  0  0
  1  2  2  0
  2  3  1  0
  2  4  1  0
  4  5  2  0
  5  6  1  0
  6  7  1  0
  7  8  2  0
  8  9  1  0
  9 10  1  0
  9 11  2  0
 11 12  1  0
 12 13  1  0
 13 14  1  6
 13 15  1  0
 13 16  1  0
 12 17  2  0
  5 18  1  0
 18 19  2  0
 19 20  1  0
 20 21  2  0
 21 22  1  0
 22 23  1  0
 23 24  2  0
 24  4  1  0
 17  7  1  0
 24 20  1  0
M  CHG  2   2   1   3  -1
M  END
$$$$
