_rank9
     RDKit          3D

 20 22  0  0  0  0  0  0  0  0999 V2000
   27.3539    0.1189  -12.2258 O   0  0  0  0  0  0  0  0  0  0  0  0
   26.1760   -0.0865  -11.8949 N   0  0  0  0  0  4  0  0  0  0  0  0
   25.2052   -0.2119  -12.8427 O   0  0  0  0  0  1  0  0  0  0  0  0
   25.8635   -0.1884  -10.5180 C   0  0  0  0  0  0  0  0  0  0  0  0
   24.6354   -0.6157  -10.0800 C   0  0  0  0  0  0  0  0  0  0  0  0
   23.6426   -0.9862  -10.9935 N   0  0  0  0  0  0  0  0  0  0  0  0
   22.2599   -0.7936  -10.9141 C   0  0  0  0  0  0  0  0  0  0  0  0
   21.7952    0.2570  -10.1125 C   0  0  0  0  0  0  0  0  0  0  0  0
   20.4590    0.5574   -9.9753 C   0  0  0  0  0  0  0  0  0  0  0  0
   19.5212   -0.2070  -10.6557 C   0  0  0  0  0  0  0  0  0  0  0  0
   17.6442    0.1700  -10.4972 Br  0  0  0  0  0  0  0  0  0  0  0  0
   19.9571   -1.2454  -11.4504 C   0  0  0  0  0  0  0  0  0  0  0  0
   21.3253   -1.5308  -11.5739 C   0  0  0  0  0  0  0  0  0  0  0  0
   24.4180   -0.6815   -8.7326 C   0  0  0  0  0  0  0  0  0  0  0  0
   25.4162   -0.3255   -7.8105 C   0  0  0  0  0  0  0  0  0  0  0  0
   26.6419    0.1004   -8.2813 C   0  0  0  0  0  0  0  0  0  0  0  0
   27.7763    0.5028   -7.6824 N   0  0  0  0  0  0  0  0  0  0  0  0
   28.6638    0.8077   -8.6022 O   0  0  0  0  0  0  0  0  0  0  0  0
   28.1409    0.6157   -9.7732 N   0  0  0  0  0  0  0  0  0  0  0  0
   26.8778    0.1734   -9.6248 C   0  0  0  0  0  0  0  0  0  0  0  0
  1  2  2  0
  2  3  1  0
  2  4  1  0
  4  5  2  0
  5  6  1  0
  6  7  1  0
  7  8  2  0
  8  9  1  0
  9 10  2  0
 10 11  1  0
 10 12  1  0
 12 13  2  0
  5 14  1  0
 14 15  2  0
 15 16  1  0
 16 17  2  0
 17 18  1  0
 18 19  1  0
 19 20  2  0
 20  4  1  0
 13  7  1  0
 20 16  1  0
M  CHG  2   2   1   3  -1
M  END
$$$$
