_rank10
     RDKit          3D

 20 22  0  0  0  0  0  0  0  0999 V2000
   25.3751   -0.1663  -12.9472 O   0  0  0  0  0  0  0  0  0  0  0  0
   26.2977   -0.2711  -12.1244 N   0  0  0  0  0  4  0  0  0  0  0  0
   27.5890   -0.3773  -12.5459 O   0  0  0  0  0  1  0  0  0  0  0  0
   25.9819   -0.2770  -10.7446 C   0  0  0  0  0  0  0  0  0  0  0  0
   24.7042   -0.4881  -10.2911 C   0  0  0  0  0  0  0  0  0  0  0  0
   23.6590   -0.7247  -11.1906 N   0  0  0  0  0  0  0  0  0  0  0  0
   22.2858   -0.5314  -11.0119 C   0  0  0  0  0  0  0  0  0  0  0  0
   21.4179   -1.1668  -11.9093 C   0  0  0  0  0  0  0  0  0  0  0  0
   20.0479   -1.0692  -11.8197 C   0  0  0  0  0  0  0  0  0  0  0  0
   19.4898   -0.3106  -10.8000 C   0  0  0  0  0  0  0  0  0  0  0  0
   17.5836   -0.1413  -10.6315 Br  0  0  0  0  0  0  0  0  0  0  0  0
   20.3257    0.3227   -9.9057 C   0  0  0  0  0  0  0  0  0  0  0  0
   21.7195    0.2070  -10.0186 C   0  0  0  0  0  0  0  0  0  0  0  0
   24.4878   -0.4746   -8.9420 C   0  0  0  0  0  0  0  0  0  0  0  0
   25.5360   -0.2528   -8.0334 C   0  0  0  0  0  0  0  0  0  0  0  0
   26.8109   -0.0438   -8.5196 C   0  0  0  0  0  0  0  0  0  0  0  0
   27.9989    0.1914   -7.9357 N   0  0  0  0  0  0  0  0  0  0  0  0
   28.9177    0.3205   -8.8662 O   0  0  0  0  0  0  0  0  0  0  0  0
   28.3633    0.1766  -10.0295 N   0  0  0  0  0  0  0  0  0  0  0  0
   27.0467   -0.0531   -9.8650 C   0  0  0  0  0  0  0  0  0  0  0  0
  1  2  2  0
  2  3  1  0
  2  4  1  0
  4  5  2  0
  5  6  1  0
  6  7  1  0
  7  8  2  0
  8  9  1  0
  9 10  2  0
 10 11  1  0
 10 12  1  0
 12 13  2  0
  5 14  1  0
 14 15  2  0
 15 16  1  0
 16 17  2  0
 17 18  1  0
 18 19  1  0
 19 20  2  0
 20  4  1  0
 13  7  1  0
 20 16  1  0
M  CHG  2   2   1   3  -1
M  END
$$$$
