_rank4
     RDKit          3D

 20 22  0  0  0  0  0  0  0  0999 V2000
   25.8462   -0.2426  -12.9637 O   0  0  0  0  0  0  0  0  0  0  0  0
   26.2225    0.4203  -11.9849 N   0  0  0  0  0  4  0  0  0  0  0  0
   27.0008    1.5253  -12.1582 O   0  0  0  0  0  1  0  0  0  0  0  0
   25.8272    0.0070  -10.6901 C   0  0  0  0  0  0  0  0  0  0  0  0
   24.5252   -0.3072  -10.3921 C   0  0  0  0  0  0  0  0  0  0  0  0
   23.5339   -0.2446  -11.3773 N   0  0  0  0  0  0  0  0  0  0  0  0
   22.1918   -0.6291  -11.2986 C   0  0  0  0  0  0  0  0  0  0  0  0
   21.3631    0.0804  -10.4198 C   0  0  0  0  0  0  0  0  0  0  0  0
   20.0218   -0.1917  -10.2742 C   0  0  0  0  0  0  0  0  0  0  0  0
   19.4537   -1.2115  -11.0251 C   0  0  0  0  0  0  0  0  0  0  0  0
   17.5866   -1.6320  -10.8582 Br  0  0  0  0  0  0  0  0  0  0  0  0
   20.2511   -1.9220  -11.8963 C   0  0  0  0  0  0  0  0  0  0  0  0
   21.6162   -1.6245  -12.0267 C   0  0  0  0  0  0  0  0  0  0  0  0
   24.2309   -0.6946   -9.1152 C   0  0  0  0  0  0  0  0  0  0  0  0
   25.2248   -0.7741   -8.1255 C   0  0  0  0  0  0  0  0  0  0  0  0
   26.5259   -0.4520   -8.4555 C   0  0  0  0  0  0  0  0  0  0  0  0
   27.6782   -0.4239   -7.7633 N   0  0  0  0  0  0  0  0  0  0  0  0
   28.6494   -0.0385   -8.5600 O   0  0  0  0  0  0  0  0  0  0  0  0
   28.1633    0.1827   -9.7416 N   0  0  0  0  0  0  0  0  0  0  0  0
   26.8394   -0.0620   -9.7265 C   0  0  0  0  0  0  0  0  0  0  0  0
  1  2  2  0
  2  3  1  0
  2  4  1  0
  4  5  2  0
  5  6  1  0
  6  7  1  0
  7  8  2  0
  8  9  1  0
  9 10  2  0
 10 11  1  0
 10 12  1  0
 12 13  2  0
  5 14  1  0
 14 15  2  0
 15 16  1  0
 16 17  2  0
 17 18  1  0
 18 19  1  0
 19 20  2  0
 20  4  1  0
 13  7  1  0
 20 16  1  0
M  CHG  2   2   1   3  -1
M  END
$$$$
