_rank8
     RDKit          3D

 20 22  0  0  0  0  0  0  0  0999 V2000
   25.4608    0.1876  -12.8698 O   0  0  0  0  0  0  0  0  0  0  0  0
   26.2653   -0.0433  -11.9540 N   0  0  0  0  0  4  0  0  0  0  0  0
   27.5750   -0.2945  -12.2336 O   0  0  0  0  0  1  0  0  0  0  0  0
   25.7962   -0.0393  -10.6185 C   0  0  0  0  0  0  0  0  0  0  0  0
   24.4582   -0.0752  -10.3168 C   0  0  0  0  0  0  0  0  0  0  0  0
   23.4998   -0.1350  -11.3344 N   0  0  0  0  0  0  0  0  0  0  0  0
   22.1925   -0.6282  -11.2818 C   0  0  0  0  0  0  0  0  0  0  0  0
   21.9173   -1.6423  -10.3554 C   0  0  0  0  0  0  0  0  0  0  0  0
   20.6643   -2.1893  -10.1967 C   0  0  0  0  0  0  0  0  0  0  0  0
   19.6194   -1.7244  -10.9834 C   0  0  0  0  0  0  0  0  0  0  0  0
   17.8521   -2.4551  -10.8019 Br  0  0  0  0  0  0  0  0  0  0  0  0
   19.8683   -0.7265  -11.9010 C   0  0  0  0  0  0  0  0  0  0  0  0
   21.1549   -0.1850  -12.0431 C   0  0  0  0  0  0  0  0  0  0  0  0
   24.0931   -0.0656   -9.0001 C   0  0  0  0  0  0  0  0  0  0  0  0
   25.0513   -0.0212   -7.9738 C   0  0  0  0  0  0  0  0  0  0  0  0
   26.3900    0.0140   -8.3084 C   0  0  0  0  0  0  0  0  0  0  0  0
   27.5247    0.0600   -7.5886 N   0  0  0  0  0  0  0  0  0  0  0  0
   28.5527    0.0790   -8.4067 O   0  0  0  0  0  0  0  0  0  0  0  0
   28.1202    0.0470   -9.6288 N   0  0  0  0  0  0  0  0  0  0  0  0
   26.7744    0.0056   -9.6191 C   0  0  0  0  0  0  0  0  0  0  0  0
  1  2  2  0
  2  3  1  0
  2  4  1  0
  4  5  2  0
  5  6  1  0
  6  7  1  0
  7  8  2  0
  8  9  1  0
  9 10  2  0
 10 11  1  0
 10 12  1  0
 12 13  2  0
  5 14  1  0
 14 15  2  0
 15 16  1  0
 16 17  2  0
 17 18  1  0
 18 19  1  0
 19 20  2  0
 20  4  1  0
 13  7  1  0
 20 16  1  0
M  CHG  2   2   1   3  -1
M  END
$$$$
