_rank17
     RDKit          3D

 20 22  0  0  0  0  0  0  0  0999 V2000
   25.7231   -0.2494  -12.9842 O   0  0  0  0  0  0  0  0  0  0  0  0
   26.4385    0.1492  -12.0523 N   0  0  0  0  0  4  0  0  0  0  0  0
   27.6950    0.6153  -12.2981 O   0  0  0  0  0  1  0  0  0  0  0  0
   25.9238    0.1106  -10.7342 C   0  0  0  0  0  0  0  0  0  0  0  0
   24.5849   -0.0481  -10.4800 C   0  0  0  0  0  0  0  0  0  0  0  0
   23.6729   -0.1962  -11.5306 N   0  0  0  0  0  0  0  0  0  0  0  0
   22.3105   -0.5057  -11.4741 C   0  0  0  0  0  0  0  0  0  0  0  0
   21.7429   -0.7120  -10.2101 C   0  0  0  0  0  0  0  0  0  0  0  0
   20.4093   -0.9993  -10.0279 C   0  0  0  0  0  0  0  0  0  0  0  0
   19.5802   -1.0917  -11.1373 C   0  0  0  0  0  0  0  0  0  0  0  0
   17.7118   -1.4914  -10.9374 Br  0  0  0  0  0  0  0  0  0  0  0  0
   20.1181   -0.8918  -12.3904 C   0  0  0  0  0  0  0  0  0  0  0  0
   21.4813   -0.5995  -12.5493 C   0  0  0  0  0  0  0  0  0  0  0  0
   24.1738   -0.0716   -9.1770 C   0  0  0  0  0  0  0  0  0  0  0  0
   25.0867    0.0612   -8.1176 C   0  0  0  0  0  0  0  0  0  0  0  0
   26.4276    0.2193   -8.4047 C   0  0  0  0  0  0  0  0  0  0  0  0
   27.5269    0.3697   -7.6454 N   0  0  0  0  0  0  0  0  0  0  0  0
   28.5773    0.4829   -8.4267 O   0  0  0  0  0  0  0  0  0  0  0  0
   28.1934    0.4107   -9.6631 N   0  0  0  0  0  0  0  0  0  0  0  0
   26.8575    0.2457   -9.7010 C   0  0  0  0  0  0  0  0  0  0  0  0
  1  2  2  0
  2  3  1  0
  2  4  1  0
  4  5  2  0
  5  6  1  0
  6  7  1  0
  7  8  2  0
  8  9  1  0
  9 10  2  0
 10 11  1  0
 10 12  1  0
 12 13  2  0
  5 14  1  0
 14 15  2  0
 15 16  1  0
 16 17  2  0
 17 18  1  0
 18 19  1  0
 19 20  2  0
 20  4  1  0
 13  7  1  0
 20 16  1  0
M  CHG  2   2   1   3  -1
M  END
$$$$
