_rank2
     RDKit          3D

 20 22  0  0  0  0  0  0  0  0999 V2000
   27.3849    0.3669  -12.3767 O   0  0  0  0  0  0  0  0  0  0  0  0
   26.1794    0.2743  -12.0984 N   0  0  0  0  0  4  0  0  0  0  0  0
   25.2392    0.3112  -13.0839 O   0  0  0  0  0  1  0  0  0  0  0  0
   25.8031    0.1291  -10.7415 C   0  0  0  0  0  0  0  0  0  0  0  0
   24.5030   -0.0992  -10.3671 C   0  0  0  0  0  0  0  0  0  0  0  0
   23.4942   -0.2145  -11.3297 N   0  0  0  0  0  0  0  0  0  0  0  0
   22.1177   -0.3760  -11.1444 C   0  0  0  0  0  0  0  0  0  0  0  0
   21.5400   -1.5762  -11.5783 C   0  0  0  0  0  0  0  0  0  0  0  0
   20.2011   -1.8578  -11.4287 C   0  0  0  0  0  0  0  0  0  0  0  0
   19.3767   -0.9194  -10.8232 C   0  0  0  0  0  0  0  0  0  0  0  0
   17.5009   -1.2632  -10.5915 Br  0  0  0  0  0  0  0  0  0  0  0  0
   19.9248    0.2681  -10.3885 C   0  0  0  0  0  0  0  0  0  0  0  0
   21.2933    0.5309  -10.5524 C   0  0  0  0  0  0  0  0  0  0  0  0
   24.2276   -0.2241   -9.0345 C   0  0  0  0  0  0  0  0  0  0  0  0
   25.2388   -0.1246   -8.0644 C   0  0  0  0  0  0  0  0  0  0  0  0
   26.5375    0.1052   -8.4717 C   0  0  0  0  0  0  0  0  0  0  0  0
   27.7028    0.2493   -7.8168 N   0  0  0  0  0  0  0  0  0  0  0  0
   28.6640    0.4552   -8.6889 O   0  0  0  0  0  0  0  0  0  0  0  0
   28.1587    0.4487   -9.8831 N   0  0  0  0  0  0  0  0  0  0  0  0
   26.8322    0.2335   -9.7993 C   0  0  0  0  0  0  0  0  0  0  0  0
  1  2  2  0
  2  3  1  0
  2  4  1  0
  4  5  2  0
  5  6  1  0
  6  7  1  0
  7  8  2  0
  8  9  1  0
  9 10  2  0
 10 11  1  0
 10 12  1  0
 12 13  2  0
  5 14  1  0
 14 15  2  0
 15 16  1  0
 16 17  2  0
 17 18  1  0
 18 19  1  0
 19 20  2  0
 20  4  1  0
 13  7  1  0
 20 16  1  0
M  CHG  2   2   1   3  -1
M  END
$$$$
