_rank13
     RDKit          3D

 24 26  0  0  0  0  0  0  0  0999 V2000
   25.9896   -0.5666  -12.9041 O   0  0  0  0  0  0  0  0  0  0  0  0
   26.1669    0.2216  -11.9666 N   0  0  0  0  0  4  0  0  0  0  0  0
   26.7044    1.4429  -12.3015 O   0  0  0  0  0  1  0  0  0  0  0  0
   25.8507   -0.1708  -10.6558 C   0  0  0  0  0  0  0  0  0  0  0  0
   24.6968   -0.8179  -10.3467 C   0  0  0  0  0  0  0  0  0  0  0  0
   23.7371   -1.1261  -11.3388 N   0  0  0  0  0  0  0  0  0  0  0  0
   22.3508   -1.0328  -11.2847 C   0  0  0  0  0  0  0  0  0  0  0  0
   21.5993   -1.8045  -12.1743 C   0  0  0  0  0  0  0  0  0  0  0  0
   20.2322   -1.7118  -12.1689 C   0  0  0  0  0  0  0  0  0  0  0  0
   19.4775   -2.4564  -13.0333 F   0  0  0  0  0  0  0  0  0  0  0  0
   19.5466   -0.8780  -11.3115 C   0  0  0  0  0  0  0  0  0  0  0  0
   20.2834   -0.1011  -10.4169 C   0  0  0  0  0  0  0  0  0  0  0  0
   19.5224    0.7882   -9.4993 C   0  0  1  0  0  0  0  0  0  0  0  0
   19.6681    2.0818   -9.9436 F   0  0  0  0  0  0  0  0  0  0  0  0
   18.2044    0.3683   -9.5043 F   0  0  0  0  0  0  0  0  0  0  0  0
   20.0873    0.6540   -8.2432 F   0  0  0  0  0  0  0  0  0  0  0  0
   21.6517   -0.2055  -10.4357 C   0  0  0  0  0  0  0  0  0  0  0  0
   24.3981   -1.1526   -9.0083 C   0  0  0  0  0  0  0  0  0  0  0  0
   25.2675   -0.8308   -8.0004 C   0  0  0  0  0  0  0  0  0  0  0  0
   26.4438   -0.1736   -8.3045 C   0  0  0  0  0  0  0  0  0  0  0  0
   27.4791    0.2764   -7.5844 N   0  0  0  0  0  0  0  0  0  0  0  0
   28.3276    0.8329   -8.4079 O   0  0  0  0  0  0  0  0  0  0  0  0
   27.9106    0.7764   -9.6362 N   0  0  0  0  0  0  0  0  0  0  0  0
   26.7339    0.1525   -9.6065 C   0  0  0  0  0  0  0  0  0  0  0  0
  1  2  2  0
  2  3  1  0
  2  4  1  0
  4  5  2  0
  5  6  1  0
  6  7  1  0
  7  8  2  0
  8  9  1  0
  9 10  1  0
  9 11  2  0
 11 12  1  0
 12 13  1  0
 13 14  1  6
 13 15  1  0
 13 16  1  0
 12 17  2  0
  5 18  1  0
 18 19  2  0
 19 20  1  0
 20 21  2  0
 21 22  1  0
 22 23  1  0
 23 24  2  0
 24  4  1  0
 17  7  1  0
 24 20  1  0
M  CHG  2   2   1   3  -1
M  END
$$$$
