_rank15
     RDKit          3D

 20 22  0  0  0  0  0  0  0  0999 V2000
   26.8682   -1.3218  -12.4309 O   0  0  0  0  0  0  0  0  0  0  0  0
   26.5382   -0.2086  -11.9938 N   0  0  0  0  0  4  0  0  0  0  0  0
   26.6402    0.8992  -12.7806 O   0  0  0  0  0  1  0  0  0  0  0  0
   26.0547   -0.1142  -10.6667 C   0  0  0  0  0  0  0  0  0  0  0  0
   24.7223   -0.2446  -10.3664 C   0  0  0  0  0  0  0  0  0  0  0  0
   23.7859   -0.4957  -11.3752 N   0  0  0  0  0  0  0  0  0  0  0  0
   22.3925   -0.5664  -11.2823 C   0  0  0  0  0  0  0  0  0  0  0  0
   21.8046   -0.2239  -10.0578 C   0  0  0  0  0  0  0  0  0  0  0  0
   20.4435   -0.2332   -9.8541 C   0  0  0  0  0  0  0  0  0  0  0  0
   19.6061   -0.5963  -10.8999 C   0  0  0  0  0  0  0  0  0  0  0  0
   17.6994   -0.6267  -10.6671 Br  0  0  0  0  0  0  0  0  0  0  0  0
   20.1638   -0.9366  -12.1135 C   0  0  0  0  0  0  0  0  0  0  0  0
   21.5550   -0.9186  -12.2957 C   0  0  0  0  0  0  0  0  0  0  0  0
   24.3421   -0.1367   -9.0584 C   0  0  0  0  0  0  0  0  0  0  0  0
   25.2796    0.1001   -8.0394 C   0  0  0  0  0  0  0  0  0  0  0  0
   26.6132    0.2265   -8.3724 C   0  0  0  0  0  0  0  0  0  0  0  0
   27.7300    0.4505   -7.6580 N   0  0  0  0  0  0  0  0  0  0  0  0
   28.7616    0.4833   -8.4713 O   0  0  0  0  0  0  0  0  0  0  0  0
   28.3487    0.2881   -9.6849 N   0  0  0  0  0  0  0  0  0  0  0  0
   27.0125    0.1223   -9.6745 C   0  0  0  0  0  0  0  0  0  0  0  0
  1  2  2  0
  2  3  1  0
  2  4  1  0
  4  5  2  0
  5  6  1  0
  6  7  1  0
  7  8  2  0
  8  9  1  0
  9 10  2  0
 10 11  1  0
 10 12  1  0
 12 13  2  0
  5 14  1  0
 14 15  2  0
 15 16  1  0
 16 17  2  0
 17 18  1  0
 18 19  1  0
 19 20  2  0
 20  4  1  0
 13  7  1  0
 20 16  1  0
M  CHG  2   2   1   3  -1
M  END
$$$$
