_rank11
     RDKit          3D

 20 22  0  0  0  0  0  0  0  0999 V2000
   27.1735    0.8102  -12.2263 O   0  0  0  0  0  0  0  0  0  0  0  0
   26.2725    0.0118  -11.9263 N   0  0  0  0  0  4  0  0  0  0  0  0
   25.6997   -0.7726  -12.8818 O   0  0  0  0  0  1  0  0  0  0  0  0
   25.8548   -0.0673  -10.5761 C   0  0  0  0  0  0  0  0  0  0  0  0
   24.5422   -0.2685  -10.2308 C   0  0  0  0  0  0  0  0  0  0  0  0
   23.5615   -0.4211  -11.2169 N   0  0  0  0  0  0  0  0  0  0  0  0
   22.1849   -0.6126  -11.0643 C   0  0  0  0  0  0  0  0  0  0  0  0
   21.3653    0.5235  -11.0779 C   0  0  0  0  0  0  0  0  0  0  0  0
   19.9956    0.4579  -10.9597 C   0  0  0  0  0  0  0  0  0  0  0  0
   19.3879   -0.7822  -10.8200 C   0  0  0  0  0  0  0  0  0  0  0  0
   17.4800   -0.9282  -10.6503 Br  0  0  0  0  0  0  0  0  0  0  0  0
   20.1758   -1.9130  -10.8047 C   0  0  0  0  0  0  0  0  0  0  0  0
   21.5704   -1.8193  -10.9275 C   0  0  0  0  0  0  0  0  0  0  0  0
   24.2264   -0.3293   -8.9027 C   0  0  0  0  0  0  0  0  0  0  0  0
   25.2090   -0.1921   -7.9083 C   0  0  0  0  0  0  0  0  0  0  0  0
   26.5213    0.0090   -8.2865 C   0  0  0  0  0  0  0  0  0  0  0  0
   27.6678    0.1750   -7.6042 N   0  0  0  0  0  0  0  0  0  0  0  0
   28.6562    0.3330   -8.4556 O   0  0  0  0  0  0  0  0  0  0  0  0
   28.1866    0.2747   -9.6629 N   0  0  0  0  0  0  0  0  0  0  0  0
   26.8563    0.0733   -9.6092 C   0  0  0  0  0  0  0  0  0  0  0  0
  1  2  2  0
  2  3  1  0
  2  4  1  0
  4  5  2  0
  5  6  1  0
  6  7  1  0
  7  8  2  0
  8  9  1  0
  9 10  2  0
 10 11  1  0
 10 12  1  0
 12 13  2  0
  5 14  1  0
 14 15  2  0
 15 16  1  0
 16 17  2  0
 17 18  1  0
 18 19  1  0
 19 20  2  0
 20  4  1  0
 13  7  1  0
 20 16  1  0
M  CHG  2   2   1   3  -1
M  END
$$$$
