_rank6
     RDKit          3D

 24 26  0  0  0  0  0  0  0  0999 V2000
   25.3979    0.2127  -13.1525 O   0  0  0  0  0  0  0  0  0  0  0  0
   26.2482    0.3302  -12.2611 N   0  0  0  0  0  4  0  0  0  0  0  0
   27.4961    0.7394  -12.6709 O   0  0  0  0  0  1  0  0  0  0  0  0
   25.9141    0.0203  -10.9327 C   0  0  0  0  0  0  0  0  0  0  0  0
   24.6419   -0.2598  -10.5472 C   0  0  0  0  0  0  0  0  0  0  0  0
   23.5721   -0.2448  -11.4722 N   0  0  0  0  0  0  0  0  0  0  0  0
   22.2261   -0.5285  -11.2694 C   0  0  0  0  0  0  0  0  0  0  0  0
   21.7165   -1.7248  -11.7802 C   0  0  0  0  0  0  0  0  0  0  0  0
   20.3872   -2.0195  -11.6258 C   0  0  0  0  0  0  0  0  0  0  0  0
   19.8671   -3.1839  -12.1205 F   0  0  0  0  0  0  0  0  0  0  0  0
   19.5091   -1.1772  -10.9778 C   0  0  0  0  0  0  0  0  0  0  0  0
   20.0033    0.0213  -10.4619 C   0  0  0  0  0  0  0  0  0  0  0  0
   19.0384    0.9123   -9.7640 C   0  0  1  0  0  0  0  0  0  0  0  0
   17.9086    1.0077  -10.5425 F   0  0  0  0  0  0  0  0  0  0  0  0
   18.7838    0.3636   -8.5201 F   0  0  0  0  0  0  0  0  0  0  0  0
   19.6405    2.1532   -9.6515 F   0  0  0  0  0  0  0  0  0  0  0  0
   21.3368    0.3013  -10.6257 C   0  0  0  0  0  0  0  0  0  0  0  0
   24.3435   -0.5206   -9.1924 C   0  0  0  0  0  0  0  0  0  0  0  0
   25.3323   -0.4959   -8.2454 C   0  0  0  0  0  0  0  0  0  0  0  0
   26.6292   -0.2129   -8.6274 C   0  0  0  0  0  0  0  0  0  0  0  0
   27.7959   -0.1090   -7.9785 N   0  0  0  0  0  0  0  0  0  0  0  0
   28.7171    0.1876   -8.8566 O   0  0  0  0  0  0  0  0  0  0  0  0
   28.2243    0.2860  -10.0537 N   0  0  0  0  0  0  0  0  0  0  0  0
   26.9192    0.0412   -9.9453 C   0  0  0  0  0  0  0  0  0  0  0  0
  1  2  2  0
  2  3  1  0
  2  4  1  0
  4  5  2  0
  5  6  1  0
  6  7  1  0
  7  8  2  0
  8  9  1  0
  9 10  1  0
  9 11  2  0
 11 12  1  0
 12 13  1  0
 13 14  1  6
 13 15  1  0
 13 16  1  0
 12 17  2  0
  5 18  1  0
 18 19  2  0
 19 20  1  0
 20 21  2  0
 21 22  1  0
 22 23  1  0
 23 24  2  0
 24  4  1  0
 17  7  1  0
 24 20  1  0
M  CHG  2   2   1   3  -1
M  END
$$$$
