_rank19
     RDKit          3D

 20 22  0  0  0  0  0  0  0  0999 V2000
   21.3515   -0.9990  -13.5342 O   0  0  0  0  0  0  0  0  0  0  0  0
   21.5380   -1.5644  -12.4458 N   0  0  0  0  0  4  0  0  0  0  0  0
   21.8172   -2.8972  -12.3998 O   0  0  0  0  0  1  0  0  0  0  0  0
   21.4559   -0.7987  -11.2580 C   0  0  0  0  0  0  0  0  0  0  0  0
   22.5738   -0.4087  -10.5646 C   0  0  0  0  0  0  0  0  0  0  0  0
   23.8513   -0.7457  -11.0250 N   0  0  0  0  0  0  0  0  0  0  0  0
   25.0754   -0.6694  -10.3535 C   0  0  0  0  0  0  0  0  0  0  0  0
   25.2167    0.3184   -9.3702 C   0  0  0  0  0  0  0  0  0  0  0  0
   26.3652    0.4749   -8.6283 C   0  0  0  0  0  0  0  0  0  0  0  0
   27.4376   -0.3768   -8.8550 C   0  0  0  0  0  0  0  0  0  0  0  0
   29.0635   -0.1996   -7.8473 Br  0  0  0  0  0  0  0  0  0  0  0  0
   27.3196   -1.3561   -9.8176 C   0  0  0  0  0  0  0  0  0  0  0  0
   26.1373   -1.4952  -10.5604 C   0  0  0  0  0  0  0  0  0  0  0  0
   22.4029    0.3267   -9.4257 C   0  0  0  0  0  0  0  0  0  0  0  0
   21.1233    0.6811   -8.9669 C   0  0  0  0  0  0  0  0  0  0  0  0
   20.0174    0.2745   -9.6860 C   0  0  0  0  0  0  0  0  0  0  0  0
   18.6932    0.4407   -9.5234 N   0  0  0  0  0  0  0  0  0  0  0  0
   18.0603   -0.1583  -10.5069 O   0  0  0  0  0  0  0  0  0  0  0  0
   18.9305   -0.7048  -11.2978 N   0  0  0  0  0  0  0  0  0  0  0  0
   20.1682   -0.4618  -10.8266 C   0  0  0  0  0  0  0  0  0  0  0  0
  1  2  2  0
  2  3  1  0
  2  4  1  0
  4  5  2  0
  5  6  1  0
  6  7  1  0
  7  8  2  0
  8  9  1  0
  9 10  2  0
 10 11  1  0
 10 12  1  0
 12 13  2  0
  5 14  1  0
 14 15  2  0
 15 16  1  0
 16 17  2  0
 17 18  1  0
 18 19  1  0
 19 20  2  0
 20  4  1  0
 13  7  1  0
 20 16  1  0
M  CHG  2   2   1   3  -1
M  END
$$$$
