_rank9
     RDKit          3D

 24 26  0  0  0  0  0  0  0  0999 V2000
   26.9641    0.8647  -12.2755 O   0  0  0  0  0  0  0  0  0  0  0  0
   25.9172    0.2786  -11.9720 N   0  0  0  0  0  4  0  0  0  0  0  0
   25.0848   -0.0457  -13.0181 O   0  0  0  0  0  1  0  0  0  0  0  0
   25.6316    0.0143  -10.6226 C   0  0  0  0  0  0  0  0  0  0  0  0
   24.3741   -0.2509  -10.1819 C   0  0  0  0  0  0  0  0  0  0  0  0
   23.2714   -0.2656  -11.0675 N   0  0  0  0  0  0  0  0  0  0  0  0
   21.9321   -0.5315  -10.8048 C   0  0  0  0  0  0  0  0  0  0  0  0
   21.5658   -1.8424  -10.4906 C   0  0  0  0  0  0  0  0  0  0  0  0
   20.2496   -2.1444  -10.2580 C   0  0  0  0  0  0  0  0  0  0  0  0
   19.8689   -3.4220   -9.9516 F   0  0  0  0  0  0  0  0  0  0  0  0
   19.2477   -1.1995  -10.3195 C   0  0  0  0  0  0  0  0  0  0  0  0
   19.5980    0.1144  -10.6320 C   0  0  0  0  0  0  0  0  0  0  0  0
   18.5010    1.1171  -10.6892 C   0  0  1  0  0  0  0  0  0  0  0  0
   17.3184    0.4424  -10.8837 F   0  0  0  0  0  0  0  0  0  0  0  0
   18.5198    1.8287   -9.5032 F   0  0  0  0  0  0  0  0  0  0  0  0
   18.7591    1.9393  -11.7720 F   0  0  0  0  0  0  0  0  0  0  0  0
   20.9205    0.3997  -10.8625 C   0  0  0  0  0  0  0  0  0  0  0  0
   24.1251   -0.4653   -8.8091 C   0  0  0  0  0  0  0  0  0  0  0  0
   25.1477   -0.4101   -7.9000 C   0  0  0  0  0  0  0  0  0  0  0  0
   26.4299   -0.1421   -8.3382 C   0  0  0  0  0  0  0  0  0  0  0  0
   27.6194   -0.0179   -7.7360 N   0  0  0  0  0  0  0  0  0  0  0  0
   28.5082    0.2474   -8.6565 O   0  0  0  0  0  0  0  0  0  0  0  0
   27.9722    0.3062   -9.8376 N   0  0  0  0  0  0  0  0  0  0  0  0
   26.6718    0.0670   -9.6736 C   0  0  0  0  0  0  0  0  0  0  0  0
  1  2  2  0
  2  3  1  0
  2  4  1  0
  4  5  2  0
  5  6  1  0
  6  7  1  0
  7  8  2  0
  8  9  1  0
  9 10  1  0
  9 11  2  0
 11 12  1  0
 12 13  1  0
 13 14  1  6
 13 15  1  0
 13 16  1  0
 12 17  2  0
  5 18  1  0
 18 19  2  0
 19 20  1  0
 20 21  2  0
 21 22  1  0
 22 23  1  0
 23 24  2  0
 24  4  1  0
 17  7  1  0
 24 20  1  0
M  CHG  2   2   1   3  -1
M  END
$$$$
