_rank7
     RDKit          3D

 24 26  0  0  0  0  0  0  0  0999 V2000
   24.9313    0.4347  -12.9306 O   0  0  0  0  0  0  0  0  0  0  0  0
   25.8659    0.5320  -12.1253 N   0  0  0  0  0  4  0  0  0  0  0  0
   26.9981    1.1594  -12.5912 O   0  0  0  0  0  1  0  0  0  0  0  0
   25.7362   -0.0115  -10.8368 C   0  0  0  0  0  0  0  0  0  0  0  0
   24.6330   -0.7000  -10.4436 C   0  0  0  0  0  0  0  0  0  0  0  0
   23.5397   -0.9004  -11.3181 N   0  0  0  0  0  0  0  0  0  0  0  0
   22.1765   -0.8873  -11.0441 C   0  0  0  0  0  0  0  0  0  0  0  0
   21.4435   -2.0546  -11.2711 C   0  0  0  0  0  0  0  0  0  0  0  0
   20.0926   -2.0656  -11.0420 C   0  0  0  0  0  0  0  0  0  0  0  0
   19.3555   -3.1970  -11.2603 F   0  0  0  0  0  0  0  0  0  0  0  0
   19.4061   -0.9594  -10.5888 C   0  0  0  0  0  0  0  0  0  0  0  0
   20.1245    0.2140  -10.3572 C   0  0  0  0  0  0  0  0  0  0  0  0
   19.3636    1.3934   -9.8653 C   0  0  1  0  0  0  0  0  0  0  0  0
   18.1186    1.3694  -10.4492 F   0  0  0  0  0  0  0  0  0  0  0  0
   19.3069    1.3114   -8.4857 F   0  0  0  0  0  0  0  0  0  0  0  0
   20.0547    2.5208  -10.2731 F   0  0  0  0  0  0  0  0  0  0  0  0
   21.4767    0.2081  -10.5922 C   0  0  0  0  0  0  0  0  0  0  0  0
   24.5250   -1.1893   -9.1240 C   0  0  0  0  0  0  0  0  0  0  0  0
   25.5312   -0.9780   -8.2195 C   0  0  0  0  0  0  0  0  0  0  0  0
   26.6574   -0.2798   -8.6098 C   0  0  0  0  0  0  0  0  0  0  0  0
   27.7880    0.0934   -7.9971 N   0  0  0  0  0  0  0  0  0  0  0  0
   28.5150    0.7484   -8.8631 O   0  0  0  0  0  0  0  0  0  0  0  0
   27.9273    0.8300  -10.0180 N   0  0  0  0  0  0  0  0  0  0  0  0
   26.7620    0.1965   -9.8935 C   0  0  0  0  0  0  0  0  0  0  0  0
  1  2  2  0
  2  3  1  0
  2  4  1  0
  4  5  2  0
  5  6  1  0
  6  7  1  0
  7  8  2  0
  8  9  1  0
  9 10  1  0
  9 11  2  0
 11 12  1  0
 12 13  1  0
 13 14  1  6
 13 15  1  0
 13 16  1  0
 12 17  2  0
  5 18  1  0
 18 19  2  0
 19 20  1  0
 20 21  2  0
 21 22  1  0
 22 23  1  0
 23 24  2  0
 24  4  1  0
 17  7  1  0
 24 20  1  0
M  CHG  2   2   1   3  -1
M  END
$$$$
