_rank10
     RDKit          3D

 24 26  0  0  0  0  0  0  0  0999 V2000
   25.6049   -0.7451  -13.1885 O   0  0  0  0  0  0  0  0  0  0  0  0
   25.8705    0.0821  -12.3073 N   0  0  0  0  0  4  0  0  0  0  0  0
   26.3992    1.2753  -12.7425 O   0  0  0  0  0  1  0  0  0  0  0  0
   25.6550   -0.2422  -10.9579 C   0  0  0  0  0  0  0  0  0  0  0  0
   24.4643   -0.7111  -10.5019 C   0  0  0  0  0  0  0  0  0  0  0  0
   23.3625   -0.8908  -11.3703 N   0  0  0  0  0  0  0  0  0  0  0  0
   22.0018   -0.7919  -11.1016 C   0  0  0  0  0  0  0  0  0  0  0  0
   21.5794    0.1448  -10.1552 C   0  0  0  0  0  0  0  0  0  0  0  0
   20.2488    0.2454   -9.8437 C   0  0  0  0  0  0  0  0  0  0  0  0
   19.8141    1.1538   -8.9179 F   0  0  0  0  0  0  0  0  0  0  0  0
   19.2857   -0.5479  -10.4299 C   0  0  0  0  0  0  0  0  0  0  0  0
   19.6921   -1.4880  -11.3773 C   0  0  0  0  0  0  0  0  0  0  0  0
   18.6354   -2.3301  -11.9989 C   0  0  1  0  0  0  0  0  0  0  0  0
   17.4282   -1.6946  -11.8239 F   0  0  0  0  0  0  0  0  0  0  0  0
   18.9615   -2.4969  -13.3327 F   0  0  0  0  0  0  0  0  0  0  0  0
   18.6337   -3.5400  -11.3273 F   0  0  0  0  0  0  0  0  0  0  0  0
   21.0284   -1.5761  -11.6773 C   0  0  0  0  0  0  0  0  0  0  0  0
   24.2775   -0.9807   -9.1290 C   0  0  0  0  0  0  0  0  0  0  0  0
   25.2942   -0.7742   -8.2352 C   0  0  0  0  0  0  0  0  0  0  0  0
   26.5089   -0.2984   -8.6890 C   0  0  0  0  0  0  0  0  0  0  0  0
   27.6739    0.0069   -8.1036 N   0  0  0  0  0  0  0  0  0  0  0  0
   28.4921    0.4233   -9.0335 O   0  0  0  0  0  0  0  0  0  0  0  0
   27.9324    0.4108  -10.2050 N   0  0  0  0  0  0  0  0  0  0  0  0
   26.6903   -0.0358  -10.0246 C   0  0  0  0  0  0  0  0  0  0  0  0
  1  2  2  0
  2  3  1  0
  2  4  1  0
  4  5  2  0
  5  6  1  0
  6  7  1  0
  7  8  2  0
  8  9  1  0
  9 10  1  0
  9 11  2  0
 11 12  1  0
 12 13  1  0
 13 14  1  6
 13 15  1  0
 13 16  1  0
 12 17  2  0
  5 18  1  0
 18 19  2  0
 19 20  1  0
 20 21  2  0
 21 22  1  0
 22 23  1  0
 23 24  2  0
 24  4  1  0
 17  7  1  0
 24 20  1  0
M  CHG  2   2   1   3  -1
M  END
$$$$
