_rank3
     RDKit          3D

 24 26  0  0  0  0  0  0  0  0999 V2000
   28.8266   -1.3092   -9.2580 C   0  0  0  0  0  0  0  0  0  0  0  0
   27.6748   -0.1329   -8.5885 S   0  0  2  0  0  6  0  0  0  0  0  0
   28.3048    1.2041   -8.5617 O   0  0  0  0  0  0  0  0  0  0  0  0
   27.4372   -0.5700   -7.1532 O   0  0  0  0  0  0  0  0  0  0  0  0
   26.1593   -0.1736   -9.4787 C   0  0  0  0  0  0  0  0  0  0  0  0
   24.9763   -0.5139   -8.8242 C   0  0  0  0  0  0  0  0  0  0  0  0
   23.7908   -0.5389   -9.5219 C   0  0  0  0  0  0  0  0  0  0  0  0
   23.7201   -0.2376  -10.8622 C   0  0  0  0  0  0  0  0  0  0  0  0
   22.5409   -0.2539  -11.5916 O   0  0  0  0  0  0  0  0  0  0  0  0
   21.3114   -0.5250  -11.0623 C   0  0  0  0  0  0  0  0  0  0  0  0
   20.7337   -1.7705  -11.1592 C   0  0  0  0  0  0  0  0  0  0  0  0
   19.4863   -1.9953  -10.6068 C   0  0  0  0  0  0  0  0  0  0  0  0
   18.9368   -3.2257  -10.7128 F   0  0  0  0  0  0  0  0  0  0  0  0
   18.8148   -0.9662   -9.9542 C   0  0  0  0  0  0  0  0  0  0  0  0
   19.4042    0.2765   -9.8642 C   0  0  0  0  0  0  0  0  0  0  0  0
   18.6944    1.3533   -9.1844 C   0  0  0  0  0  0  0  0  0  0  0  0
   18.1202    2.1902   -8.6572 N   0  0  0  0  0  0  0  0  0  0  0  0
   20.6451    0.4854  -10.4180 C   0  0  0  0  0  0  0  0  0  0  0  0
   24.9221    0.1005  -11.4962 C   0  0  0  0  0  0  0  0  0  0  0  0
   26.1113    0.1298  -10.8134 C   0  0  0  0  0  0  0  0  0  0  0  0
   27.2233    0.5201  -11.7367 C   0  0  2  0  0  0  0  0  0  0  0  0
   28.1814    1.3063  -11.1509 O   0  0  0  0  0  0  0  0  0  0  0  0
   26.4431    1.2964  -12.8083 C   0  0  0  0  0  0  0  0  0  0  0  0
   25.2024    0.4657  -12.9047 C   0  0  0  0  0  0  0  0  0  0  0  0
  1  2  1  1
  2  3  2  0
  2  4  2  0
  2  5  1  6
  5  6  2  0
  6  7  1  0
  7  8  2  0
  8  9  1  0
  9 10  1  0
 10 11  2  0
 11 12  1  0
 12 13  1  0
 12 14  2  0
 14 15  1  0
 15 16  1  0
 16 17  3  0
 15 18  2  0
  8 19  1  0
 19 20  2  0
 20 21  1  0
 21 22  1  1
 21 23  1  0
 23 24  1  1
 20  5  1  0
 18 10  1  0
 24 19  1  1
M  END
$$$$
