_rank14
     RDKit          3D

 24 26  0  0  0  0  0  0  0  0999 V2000
   28.7285   -1.4320   -9.2854 C   0  0  0  0  0  0  0  0  0  0  0  0
   27.6041   -0.1287   -8.8432 S   0  0  2  0  0  6  0  0  0  0  0  0
   28.2748    1.1758   -9.0268 O   0  0  0  0  0  0  0  0  0  0  0  0
   27.3323   -0.3136   -7.3601 O   0  0  0  0  0  0  0  0  0  0  0  0
   26.1011   -0.2746   -9.7435 C   0  0  0  0  0  0  0  0  0  0  0  0
   24.9460   -0.7202   -9.1026 C   0  0  0  0  0  0  0  0  0  0  0  0
   23.7697   -0.8275   -9.8081 C   0  0  0  0  0  0  0  0  0  0  0  0
   23.6817   -0.5087  -11.1432 C   0  0  0  0  0  0  0  0  0  0  0  0
   22.5111   -0.6062  -11.8802 O   0  0  0  0  0  0  0  0  0  0  0  0
   21.2726   -0.7973  -11.3372 C   0  0  0  0  0  0  0  0  0  0  0  0
   20.6087   -1.9988  -11.4388 C   0  0  0  0  0  0  0  0  0  0  0  0
   19.3558   -2.1426  -10.8719 C   0  0  0  0  0  0  0  0  0  0  0  0
   18.7210   -3.3309  -10.9828 F   0  0  0  0  0  0  0  0  0  0  0  0
   18.7657   -1.0767  -10.2002 C   0  0  0  0  0  0  0  0  0  0  0  0
   19.4409    0.1212  -10.1058 C   0  0  0  0  0  0  0  0  0  0  0  0
   18.8161    1.2371   -9.4059 C   0  0  0  0  0  0  0  0  0  0  0  0
   18.3149    2.1162   -8.8729 N   0  0  0  0  0  0  0  0  0  0  0  0
   20.6862    0.2497  -10.6740 C   0  0  0  0  0  0  0  0  0  0  0  0
   24.8557   -0.0641  -11.7636 C   0  0  0  0  0  0  0  0  0  0  0  0
   26.0355    0.0481  -11.0729 C   0  0  0  0  0  0  0  0  0  0  0  0
   27.1171    0.5427  -11.9822 C   0  0  2  0  0  0  0  0  0  0  0  0
   28.0061    1.3924  -11.3767 O   0  0  0  0  0  0  0  0  0  0  0  0
   26.2824    1.2732  -13.0449 C   0  0  0  0  0  0  0  0  0  0  0  0
   25.1127    0.3477  -13.1637 C   0  0  0  0  0  0  0  0  0  0  0  0
  1  2  1  1
  2  3  2  0
  2  4  2  0
  2  5  1  6
  5  6  2  0
  6  7  1  0
  7  8  2  0
  8  9  1  0
  9 10  1  0
 10 11  2  0
 11 12  1  0
 12 13  1  0
 12 14  2  0
 14 15  1  0
 15 16  1  0
 16 17  3  0
 15 18  2  0
  8 19  1  0
 19 20  2  0
 20 21  1  0
 21 22  1  1
 21 23  1  0
 23 24  1  1
 20  5  1  0
 18 10  1  0
 24 19  1  1
M  END
$$$$
