_rank11
     RDKit          3D

 24 26  0  0  0  0  0  0  0  0999 V2000
   28.7192   -1.5361   -9.1620 C   0  0  0  0  0  0  0  0  0  0  0  0
   27.5678   -0.3024   -8.6044 S   0  0  2  0  0  6  0  0  0  0  0  0
   28.2052    1.0291   -8.6832 O   0  0  0  0  0  0  0  0  0  0  0  0
   27.3143   -0.6169   -7.1400 O   0  0  0  0  0  0  0  0  0  0  0  0
   26.0606   -0.4099   -9.5029 C   0  0  0  0  0  0  0  0  0  0  0  0
   24.8867   -0.7849   -8.8510 C   0  0  0  0  0  0  0  0  0  0  0  0
   23.7073   -0.8622   -9.5554 C   0  0  0  0  0  0  0  0  0  0  0  0
   23.6342   -0.5808  -10.8998 C   0  0  0  0  0  0  0  0  0  0  0  0
   22.4610   -0.6496  -11.6358 O   0  0  0  0  0  0  0  0  0  0  0  0
   21.2297   -0.9013  -11.1011 C   0  0  0  0  0  0  0  0  0  0  0  0
   20.6175   -2.1279  -11.2244 C   0  0  0  0  0  0  0  0  0  0  0  0
   19.3698   -2.3335  -10.6652 C   0  0  0  0  0  0  0  0  0  0  0  0
   18.7862   -3.5455  -10.7974 F   0  0  0  0  0  0  0  0  0  0  0  0
   18.7329   -1.3042   -9.9792 C   0  0  0  0  0  0  0  0  0  0  0  0
   19.3566   -0.0806   -9.8631 C   0  0  0  0  0  0  0  0  0  0  0  0
   18.6828    0.9967   -9.1483 C   0  0  0  0  0  0  0  0  0  0  0  0
   18.1720    1.8505   -8.5841 N   0  0  0  0  0  0  0  0  0  0  0  0
   20.5974    0.1093  -10.4240 C   0  0  0  0  0  0  0  0  0  0  0  0
   24.8270   -0.2070  -11.5310 C   0  0  0  0  0  0  0  0  0  0  0  0
   26.0100   -0.1255  -10.8416 C   0  0  0  0  0  0  0  0  0  0  0  0
   27.1129    0.2934  -11.7634 C   0  0  2  0  0  0  0  0  0  0  0  0
   28.0378    1.1216  -11.1822 O   0  0  0  0  0  0  0  0  0  0  0  0
   26.3117    1.0269  -12.8495 C   0  0  0  0  0  0  0  0  0  0  0  0
   25.1028    0.1501  -12.9425 C   0  0  0  0  0  0  0  0  0  0  0  0
  1  2  1  1
  2  3  2  0
  2  4  2  0
  2  5  1  6
  5  6  2  0
  6  7  1  0
  7  8  2  0
  8  9  1  0
  9 10  1  0
 10 11  2  0
 11 12  1  0
 12 13  1  0
 12 14  2  0
 14 15  1  0
 15 16  1  0
 16 17  3  0
 15 18  2  0
  8 19  1  0
 19 20  2  0
 20 21  1  0
 21 22  1  1
 21 23  1  0
 23 24  1  1
 20  5  1  0
 18 10  1  0
 24 19  1  1
M  END
$$$$
