_rank12
     RDKit          3D

 24 26  0  0  0  0  0  0  0  0999 V2000
   28.2653   -1.6109   -8.4850 C   0  0  0  0  0  0  0  0  0  0  0  0
   27.5918   -0.0200   -8.9019 S   0  0  2  0  0  6  0  0  0  0  0  0
   28.6201    0.7742   -9.6070 O   0  0  0  0  0  0  0  0  0  0  0  0
   27.3021    0.6583   -7.5739 O   0  0  0  0  0  0  0  0  0  0  0  0
   26.0995   -0.1982   -9.8140 C   0  0  0  0  0  0  0  0  0  0  0  0
   24.9886   -0.7967   -9.2214 C   0  0  0  0  0  0  0  0  0  0  0  0
   23.8200   -0.9293   -9.9355 C   0  0  0  0  0  0  0  0  0  0  0  0
   23.6975   -0.4894  -11.2330 C   0  0  0  0  0  0  0  0  0  0  0  0
   22.5337   -0.6088  -11.9774 O   0  0  0  0  0  0  0  0  0  0  0  0
   21.2875   -0.7617  -11.4397 C   0  0  0  0  0  0  0  0  0  0  0  0
   20.6158   -1.9622  -11.4842 C   0  0  0  0  0  0  0  0  0  0  0  0
   19.3554   -2.0666  -10.9254 C   0  0  0  0  0  0  0  0  0  0  0  0
   18.7130   -3.2547  -10.9796 F   0  0  0  0  0  0  0  0  0  0  0  0
   18.7657   -0.9619  -10.3193 C   0  0  0  0  0  0  0  0  0  0  0  0
   19.4487    0.2347  -10.2816 C   0  0  0  0  0  0  0  0  0  0  0  0
   18.8244    1.3911   -9.6505 C   0  0  0  0  0  0  0  0  0  0  0  0
   18.3288    2.3048   -9.1733 N   0  0  0  0  0  0  0  0  0  0  0  0
   20.7015    0.3237  -10.8411 C   0  0  0  0  0  0  0  0  0  0  0  0
   24.8276    0.1075  -11.8052 C   0  0  0  0  0  0  0  0  0  0  0  0
   25.9991    0.2467  -11.1054 C   0  0  0  0  0  0  0  0  0  0  0  0
   27.0310    0.9140  -11.9605 C   0  0  2  0  0  0  0  0  0  0  0  0
   27.8526    1.7696  -11.2733 O   0  0  0  0  0  0  0  0  0  0  0  0
   26.1329    1.6751  -12.9473 C   0  0  0  0  0  0  0  0  0  0  0  0
   25.0411    0.6740  -13.1579 C   0  0  0  0  0  0  0  0  0  0  0  0
  1  2  1  1
  2  3  2  0
  2  4  2  0
  2  5  1  6
  5  6  2  0
  6  7  1  0
  7  8  2  0
  8  9  1  0
  9 10  1  0
 10 11  2  0
 11 12  1  0
 12 13  1  0
 12 14  2  0
 14 15  1  0
 15 16  1  0
 16 17  3  0
 15 18  2  0
  8 19  1  0
 19 20  2  0
 20 21  1  0
 21 22  1  1
 21 23  1  0
 23 24  1  1
 20  5  1  0
 18 10  1  0
 24 19  1  1
M  END
$$$$
