_rank15
     RDKit          3D

 24 26  0  0  0  0  0  0  0  0999 V2000
   27.7687    0.2134   -7.2624 C   0  0  0  0  0  0  0  0  0  0  0  0
   27.9036   -0.4769   -8.8946 S   0  0  2  0  0  6  0  0  0  0  0  0
   28.4291   -1.8552   -8.7980 O   0  0  0  0  0  0  0  0  0  0  0  0
   28.9400    0.3728   -9.6098 O   0  0  0  0  0  0  0  0  0  0  0  0
   26.3661   -0.3729   -9.7406 C   0  0  0  0  0  0  0  0  0  0  0  0
   25.1881   -0.7402   -9.0918 C   0  0  0  0  0  0  0  0  0  0  0  0
   23.9855   -0.6519   -9.7543 C   0  0  0  0  0  0  0  0  0  0  0  0
   23.8927   -0.2091  -11.0533 C   0  0  0  0  0  0  0  0  0  0  0  0
   22.6959   -0.1091  -11.7465 O   0  0  0  0  0  0  0  0  0  0  0  0
   21.4907   -0.5391  -11.2691 C   0  0  0  0  0  0  0  0  0  0  0  0
   21.0619   -1.8368  -11.4330 C   0  0  0  0  0  0  0  0  0  0  0  0
   19.8330   -2.2238  -10.9313 C   0  0  0  0  0  0  0  0  0  0  0  0
   19.4308   -3.5029  -11.1027 F   0  0  0  0  0  0  0  0  0  0  0  0
   19.0302   -1.3055  -10.2621 C   0  0  0  0  0  0  0  0  0  0  0  0
   19.4711   -0.0091  -10.1049 C   0  0  0  0  0  0  0  0  0  0  0  0
   18.6240    0.9512   -9.4080 C   0  0  0  0  0  0  0  0  0  0  0  0
   17.9754    1.7161   -8.8580 N   0  0  0  0  0  0  0  0  0  0  0  0
   20.6955    0.3616  -10.6088 C   0  0  0  0  0  0  0  0  0  0  0  0
   25.0900    0.1532  -11.6825 C   0  0  0  0  0  0  0  0  0  0  0  0
   26.2961    0.0706  -11.0345 C   0  0  0  0  0  0  0  0  0  0  0  0
   27.3983    0.5182  -11.9435 C   0  0  2  0  0  0  0  0  0  0  0  0
   28.3986    1.2059  -11.3064 O   0  0  0  0  0  0  0  0  0  0  0  0
   26.6206    1.4287  -12.9056 C   0  0  0  0  0  0  0  0  0  0  0  0
   25.3485    0.6549  -13.0528 C   0  0  0  0  0  0  0  0  0  0  0  0
  1  2  1  1
  2  3  2  0
  2  4  2  0
  2  5  1  6
  5  6  2  0
  6  7  1  0
  7  8  2  0
  8  9  1  0
  9 10  1  0
 10 11  2  0
 11 12  1  0
 12 13  1  0
 12 14  2  0
 14 15  1  0
 15 16  1  0
 16 17  3  0
 15 18  2  0
  8 19  1  0
 19 20  2  0
 20 21  1  0
 21 22  1  1
 21 23  1  0
 23 24  1  1
 20  5  1  0
 18 10  1  0
 24 19  1  1
M  END
$$$$
