_rank5
     RDKit          3D

 16 16  0  0  0  0  0  0  0  0999 V2000
   26.1700    0.8359  -12.7714 C   0  0  0  0  0  0  0  0  0  0  0  0
   26.3719    0.5133  -11.4215 O   0  0  0  0  0  0  0  0  0  0  0  0
   25.3708   -0.0701  -10.6673 C   0  0  0  0  0  0  0  0  0  0  0  0
   24.1126   -0.1707  -11.2609 C   0  0  0  0  0  0  0  0  0  0  0  0
   23.1086   -0.7497  -10.5196 C   0  0  0  0  0  0  0  0  0  0  0  0
   21.7541   -0.8696  -11.1302 C   0  0  1  0  0  0  0  0  0  0  0  0
   21.3123   -2.2568  -11.1392 N   0  0  0  0  0  0  0  0  0  0  0  0
   20.8130   -0.0979  -10.3140 C   0  0  0  0  0  0  0  0  0  0  0  0
   20.0603    0.5215   -9.6844 N   0  0  0  0  0  0  0  0  0  0  0  0
   23.2681   -1.2342   -9.2329 C   0  0  0  0  0  0  0  0  0  0  0  0
   24.5438   -1.1056   -8.6960 C   0  0  0  0  0  0  0  0  0  0  0  0
   25.5803   -0.5374   -9.3895 C   0  0  0  0  0  0  0  0  0  0  0  0
   27.1494   -0.4111   -8.6516 S   0  0  1  0  0  6  0  0  0  0  0  0
   28.2713   -1.4350   -9.6115 C   0  0  0  0  0  0  0  0  0  0  0  0
   27.6151    0.9983   -8.6945 O   0  0  0  0  0  0  0  0  0  0  0  0
   27.1462   -0.8899   -7.2279 O   0  0  0  0  0  0  0  0  0  0  0  0
  1  2  1  6
  2  3  1  0
  3  4  2  0
  4  5  1  0
  5  6  1  0
  6  7  1  1
  6  8  1  0
  8  9  3  0
  5 10  2  0
 10 11  1  0
 11 12  2  0
 13 12  1  6
 14 13  1  6
 13 15  2  0
 13 16  2  0
 12  3  1  0
M  END
$$$$
