_rank13
     RDKit          3D

 16 16  0  0  0  0  0  0  0  0999 V2000
   25.8779    0.4647  -12.9033 C   0  0  0  0  0  0  0  0  0  0  0  0
   24.7679   -0.0997  -12.2581 O   0  0  0  0  0  0  0  0  0  0  0  0
   24.7939   -0.3836  -10.9053 C   0  0  0  0  0  0  0  0  0  0  0  0
   26.0413   -0.3637  -10.2816 C   0  0  0  0  0  0  0  0  0  0  0  0
   26.0794   -0.6447   -8.9354 C   0  0  0  0  0  0  0  0  0  0  0  0
   27.3999   -0.6302   -8.2441 C   0  0  1  0  0  0  0  0  0  0  0  0
   28.3562   -1.4804   -8.9386 N   0  0  0  0  0  0  0  0  0  0  0  0
   27.9132    0.7423   -8.2641 C   0  0  0  0  0  0  0  0  0  0  0  0
   28.3034    1.8348   -8.2905 N   0  0  0  0  0  0  0  0  0  0  0  0
   24.9666   -0.9434   -8.1684 C   0  0  0  0  0  0  0  0  0  0  0  0
   23.7529   -0.9478   -8.8461 C   0  0  0  0  0  0  0  0  0  0  0  0
   23.6572   -0.6752  -10.1857 C   0  0  0  0  0  0  0  0  0  0  0  0
   22.1033   -0.6994  -10.9651 S   0  0  1  0  0  6  0  0  0  0  0  0
   22.3360   -1.4298  -12.5903 C   0  0  0  0  0  0  0  0  0  0  0  0
   21.1594   -1.5371  -10.1826 O   0  0  0  0  0  0  0  0  0  0  0  0
   21.5283    0.6790  -11.1255 O   0  0  0  0  0  0  0  0  0  0  0  0
  1  2  1  6
  2  3  1  0
  3  4  2  0
  4  5  1  0
  5  6  1  0
  6  7  1  6
  6  8  1  0
  8  9  3  0
  5 10  2  0
 10 11  1  0
 11 12  2  0
 13 12  1  1
 14 13  1  6
 13 15  2  0
 13 16  2  0
 12  3  1  0
M  END
$$$$
