_rank7
     RDKit          3D

 16 16  0  0  0  0  0  0  0  0999 V2000
   25.9051    0.9175  -13.2122 C   0  0  0  0  0  0  0  0  0  0  0  0
   26.1695    0.8394  -11.8370 O   0  0  0  0  0  0  0  0  0  0  0  0
   25.2905    0.2128  -10.9733 C   0  0  0  0  0  0  0  0  0  0  0  0
   23.9946   -0.0038  -11.4415 C   0  0  0  0  0  0  0  0  0  0  0  0
   23.1110   -0.6267  -10.5906 C   0  0  0  0  0  0  0  0  0  0  0  0
   21.7194   -0.8704  -11.0660 C   0  0  1  0  0  0  0  0  0  0  0  0
   20.9644   -1.6351  -10.0838 N   0  0  0  0  0  0  0  0  0  0  0  0
   21.0595    0.4267  -11.2376 C   0  0  0  0  0  0  0  0  0  0  0  0
   20.5350    1.4553  -11.3535 N   0  0  0  0  0  0  0  0  0  0  0  0
   23.4255   -1.0479   -9.3101 C   0  0  0  0  0  0  0  0  0  0  0  0
   24.7314   -0.8042   -8.9008 C   0  0  0  0  0  0  0  0  0  0  0  0
   25.6523   -0.1878   -9.7070 C   0  0  0  0  0  0  0  0  0  0  0  0
   27.2682    0.0831   -9.1255 S   0  0  1  0  0  6  0  0  0  0  0  0
   27.4143   -0.7663   -7.5488 C   0  0  0  0  0  0  0  0  0  0  0  0
   28.2507   -0.4874  -10.0816 O   0  0  0  0  0  0  0  0  0  0  0  0
   27.5607    1.5426   -8.9244 O   0  0  0  0  0  0  0  0  0  0  0  0
  1  2  1  6
  2  3  1  0
  3  4  2  0
  4  5  1  0
  5  6  1  0
  6  7  1  1
  6  8  1  0
  8  9  3  0
  5 10  2  0
 10 11  1  0
 11 12  2  0
 13 12  1  6
 14 13  1  6
 13 15  2  0
 13 16  2  0
 12  3  1  0
M  END
$$$$
