_rank15
     RDKit          3D

 16 16  0  0  0  0  0  0  0  0999 V2000
   24.4712    0.0753  -13.5849 C   0  0  0  0  0  0  0  0  0  0  0  0
   23.6498    0.3324  -12.4775 O   0  0  0  0  0  0  0  0  0  0  0  0
   23.9993   -0.0987  -11.2113 C   0  0  0  0  0  0  0  0  0  0  0  0
   25.3556   -0.0663  -10.8871 C   0  0  0  0  0  0  0  0  0  0  0  0
   25.7152   -0.4930   -9.6297 C   0  0  0  0  0  0  0  0  0  0  0  0
   27.1583   -0.4687   -9.2574 C   0  0  1  0  0  0  0  0  0  0  0  0
   27.9889   -0.2099  -10.4248 N   0  0  0  0  0  0  0  0  0  0  0  0
   27.3669    0.6212   -8.3002 C   0  0  0  0  0  0  0  0  0  0  0  0
   27.5472    1.4738   -7.5340 N   0  0  0  0  0  0  0  0  0  0  0  0
   24.8226   -0.9483   -8.6748 C   0  0  0  0  0  0  0  0  0  0  0  0
   23.4861   -0.9570   -9.0568 C   0  0  0  0  0  0  0  0  0  0  0  0
   23.0723   -0.5433  -10.2959 C   0  0  0  0  0  0  0  0  0  0  0  0
   21.3822   -0.5827  -10.7020 S   0  0  1  0  0  6  0  0  0  0  0  0
   20.6520    0.9381  -10.0834 C   0  0  0  0  0  0  0  0  0  0  0  0
   21.2190   -0.6394  -12.1769 O   0  0  0  0  0  0  0  0  0  0  0  0
   20.6770   -1.7534  -10.0790 O   0  0  0  0  0  0  0  0  0  0  0  0
  1  2  1  6
  2  3  1  0
  3  4  2  0
  4  5  1  0
  5  6  1  0
  6  7  1  6
  6  8  1  0
  8  9  3  0
  5 10  2  0
 10 11  1  0
 11 12  2  0
 13 12  1  6
 14 13  1  6
 13 15  2  0
 13 16  2  0
 12  3  1  0
M  END
$$$$
