_rank9
     RDKit          3D

 16 16  0  0  0  0  0  0  0  0999 V2000
   26.4773    0.8432  -13.0179 C   0  0  0  0  0  0  0  0  0  0  0  0
   26.7114    0.2859  -11.7523 O   0  0  0  0  0  0  0  0  0  0  0  0
   25.6656   -0.1150  -10.9419 C   0  0  0  0  0  0  0  0  0  0  0  0
   24.3993   -0.1618  -11.5250 C   0  0  0  0  0  0  0  0  0  0  0  0
   23.3509   -0.5594  -10.7280 C   0  0  0  0  0  0  0  0  0  0  0  0
   21.9868   -0.6182  -11.3261 C   0  0  1  0  0  0  0  0  0  0  0  0
   22.0210   -1.2695  -12.6277 N   0  0  0  0  0  0  0  0  0  0  0  0
   21.1319   -1.4144  -10.4414 C   0  0  0  0  0  0  0  0  0  0  0  0
   20.4404   -2.0445   -9.7549 N   0  0  0  0  0  0  0  0  0  0  0  0
   23.4734   -0.9127   -9.3953 C   0  0  0  0  0  0  0  0  0  0  0  0
   24.7593   -0.8460   -8.8715 C   0  0  0  0  0  0  0  0  0  0  0  0
   25.8394   -0.4568   -9.6198 C   0  0  0  0  0  0  0  0  0  0  0  0
   27.4186   -0.3978   -8.8951 S   0  0  1  0  0  6  0  0  0  0  0  0
   27.7180    1.3070   -8.4128 C   0  0  0  0  0  0  0  0  0  0  0  0
   27.4520   -1.2612   -7.6874 O   0  0  0  0  0  0  0  0  0  0  0  0
   28.4956   -0.8338   -9.8471 O   0  0  0  0  0  0  0  0  0  0  0  0
  1  2  1  6
  2  3  1  0
  3  4  2  0
  4  5  1  0
  5  6  1  0
  6  7  1  6
  6  8  1  0
  8  9  3  0
  5 10  2  0
 10 11  1  0
 11 12  2  0
 13 12  1  6
 14 13  1  6
 13 15  2  0
 13 16  2  0
 12  3  1  0
M  END
$$$$
