_rank16
     RDKit          3D

 16 16  0  0  0  0  0  0  0  0999 V2000
   24.0681    0.0370  -13.3900 C   0  0  0  0  0  0  0  0  0  0  0  0
   23.2243   -0.3105  -12.3250 O   0  0  0  0  0  0  0  0  0  0  0  0
   23.7367   -0.6471  -11.0859 C   0  0  0  0  0  0  0  0  0  0  0  0
   25.1195   -0.5519  -10.9293 C   0  0  0  0  0  0  0  0  0  0  0  0
   25.6407   -0.8843   -9.7003 C   0  0  0  0  0  0  0  0  0  0  0  0
   27.1157   -0.7914   -9.5059 C   0  0  1  0  0  0  0  0  0  0  0  0
   27.7813   -0.4531  -10.7557 N   0  0  0  0  0  0  0  0  0  0  0  0
   27.3848    0.2798   -8.5428 C   0  0  0  0  0  0  0  0  0  0  0  0
   27.6172    1.1282   -7.7861 N   0  0  0  0  0  0  0  0  0  0  0  0
   24.8849   -1.3038   -8.6192 C   0  0  0  0  0  0  0  0  0  0  0  0
   23.5140   -1.3785   -8.8370 C   0  0  0  0  0  0  0  0  0  0  0  0
   22.9416   -1.0594  -10.0405 C   0  0  0  0  0  0  0  0  0  0  0  0
   21.2183   -1.1773  -10.2378 S   0  0  1  0  0  6  0  0  0  0  0  0
   20.6262    0.4505  -10.7156 C   0  0  0  0  0  0  0  0  0  0  0  0
   20.8991   -2.1495  -11.3139 O   0  0  0  0  0  0  0  0  0  0  0  0
   20.5302   -1.5961   -8.9700 O   0  0  0  0  0  0  0  0  0  0  0  0
  1  2  1  6
  2  3  1  0
  3  4  2  0
  4  5  1  0
  5  6  1  0
  6  7  1  6
  6  8  1  0
  8  9  3  0
  5 10  2  0
 10 11  1  0
 11 12  2  0
 13 12  1  1
 14 13  1  6
 13 15  2  0
 13 16  2  0
 12  3  1  0
M  END
$$$$
