_rank18
     RDKit          3D

 16 16  0  0  0  0  0  0  0  0999 V2000
   22.7207   -1.2923  -13.7050 C   0  0  0  0  0  0  0  0  0  0  0  0
   22.1262   -0.9321  -12.4869 O   0  0  0  0  0  0  0  0  0  0  0  0
   22.8625   -0.8822  -11.3179 C   0  0  0  0  0  0  0  0  0  0  0  0
   24.2446   -0.7482  -11.4495 C   0  0  0  0  0  0  0  0  0  0  0  0
   24.9877   -0.6974  -10.2928 C   0  0  0  0  0  0  0  0  0  0  0  0
   26.4672   -0.5544  -10.4050 C   0  0  1  0  0  0  0  0  0  0  0  0
   26.8141    0.5626  -11.2718 N   0  0  0  0  0  0  0  0  0  0  0  0
   27.0039   -0.2778   -9.0697 C   0  0  0  0  0  0  0  0  0  0  0  0
   27.4307   -0.0393   -8.0174 N   0  0  0  0  0  0  0  0  0  0  0  0
   24.4536   -0.7704   -9.0179 C   0  0  0  0  0  0  0  0  0  0  0  0
   23.0715   -0.9033   -8.9518 C   0  0  0  0  0  0  0  0  0  0  0  0
   22.2832   -0.9590  -10.0714 C   0  0  0  0  0  0  0  0  0  0  0  0
   20.5603   -1.1259   -9.9097 S   0  0  1  0  0  6  0  0  0  0  0  0
   19.8305    0.4578  -10.3433 C   0  0  0  0  0  0  0  0  0  0  0  0
   20.0641   -2.1662  -10.8460 O   0  0  0  0  0  0  0  0  0  0  0  0
   20.1549   -1.4847   -8.5086 O   0  0  0  0  0  0  0  0  0  0  0  0
  1  2  1  6
  2  3  1  0
  3  4  2  0
  4  5  1  0
  5  6  1  0
  6  7  1  6
  6  8  1  0
  8  9  3  0
  5 10  2  0
 10 11  1  0
 11 12  2  0
 13 12  1  1
 14 13  1  6
 13 15  2  0
 13 16  2  0
 12  3  1  0
M  END
$$$$
