_rank9
     RDKit          3D

 20 21  0  0  0  0  0  0  0  0999 V2000
   25.3135    0.1950  -12.8707 C   0  0  0  0  0  0  0  0  0  0  0  0
   23.9030    0.5907  -13.0249 C   0  0  2  0  0  0  0  0  0  0  0  0
   23.7898    1.8170  -13.8997 C   0  0  0  0  0  0  0  0  0  0  0  0
   23.0492    0.6667  -11.7944 C   0  0  1  0  0  0  0  0  0  0  0  0
   21.5949    0.6775  -12.0876 C   0  0  0  0  0  0  0  0  0  0  0  0
   20.7257   -0.3836  -11.5781 C   0  0  0  0  0  0  0  0  0  0  0  0
   21.2193   -1.0708  -10.3326 C   0  0  1  0  0  0  0  0  0  0  0  0
   20.3457   -2.2126   -9.9085 C   0  0  0  0  0  0  0  0  0  0  0  0
   22.6321   -1.5283  -10.6652 C   0  0  0  0  0  0  0  0  0  0  0  0
   23.4290   -0.2282  -10.6751 C   0  0  1  0  0  0  0  0  0  0  0  0
   24.7820   -0.4296  -10.4950 O   0  0  0  0  0  0  0  0  0  0  0  0
   25.5468   -0.3591   -9.3624 C   0  0  0  0  0  0  0  0  0  0  0  0
   25.0671   -0.7398   -8.1401 C   0  0  0  0  0  0  0  0  0  0  0  0
   25.8975   -0.6454   -7.0163 C   0  0  0  0  0  0  0  0  0  0  0  0
   25.4076   -1.0261   -5.8052 F   0  0  0  0  0  0  0  0  0  0  0  0
   27.1860   -0.1796   -7.1064 C   0  0  0  0  0  0  0  0  0  0  0  0
   27.6889    0.2122   -8.3486 C   0  0  0  0  0  0  0  0  0  0  0  0
   29.0392    0.6960   -8.4624 C   0  0  0  0  0  0  0  0  0  0  0  0
   30.1257    1.0960   -8.5532 N   0  0  0  0  0  0  0  0  0  0  0  0
   26.8527    0.1084   -9.4291 C   0  0  0  0  0  0  0  0  0  0  0  0
  2  1  1  1
  3  2  1  6
  2  4  1  0
  4  5  1  6
  5  6  1  1
  6  7  1  1
  7  8  1  6
  7  9  1  0
  9 10  1  6
 10 11  1  6
 11 12  1  0
 12 13  2  0
 13 14  1  0
 14 15  1  0
 14 16  2  0
 16 17  1  0
 17 18  1  0
 18 19  3  0
 17 20  2  0
 10  4  1  0
 20 12  1  0
M  END
$$$$
