_rank13
     RDKit          3D

 20 21  0  0  0  0  0  0  0  0999 V2000
   23.0617    1.8884  -11.4387 C   0  0  0  0  0  0  0  0  0  0  0  0
   22.5252    1.5049  -10.1215 C   0  0  2  0  0  0  0  0  0  0  0  0
   23.2489    2.2428   -9.0198 C   0  0  0  0  0  0  0  0  0  0  0  0
   22.3413    0.0457   -9.8282 C   0  0  1  0  0  0  0  0  0  0  0  0
   20.9753   -0.2918   -9.3578 C   0  0  0  0  0  0  0  0  0  0  0  0
   20.1366   -1.2214  -10.1152 C   0  0  0  0  0  0  0  0  0  0  0  0
   20.8875   -2.2125  -10.9645 C   0  0  1  0  0  0  0  0  0  0  0  0
   19.9849   -3.0749  -11.7941 C   0  0  0  0  0  0  0  0  0  0  0  0
   21.8200   -1.3719  -11.8245 C   0  0  0  0  0  0  0  0  0  0  0  0
   22.8800   -0.8997  -10.8352 C   0  0  1  0  0  0  0  0  0  0  0  0
   24.0550   -0.5213  -11.4513 O   0  0  0  0  0  0  0  0  0  0  0  0
   25.3563   -0.7085  -11.0716 C   0  0  0  0  0  0  0  0  0  0  0  0
   26.3173   -1.1140  -11.9555 C   0  0  0  0  0  0  0  0  0  0  0  0
   27.6329   -1.2881  -11.5081 C   0  0  0  0  0  0  0  0  0  0  0  0
   28.5797   -1.6935  -12.3974 F   0  0  0  0  0  0  0  0  0  0  0  0
   27.9881   -1.0621  -10.2011 C   0  0  0  0  0  0  0  0  0  0  0  0
   27.0169   -0.6472   -9.2878 C   0  0  0  0  0  0  0  0  0  0  0  0
   27.3730   -0.3990   -7.9160 C   0  0  0  0  0  0  0  0  0  0  0  0
   27.6629   -0.1892   -6.8112 N   0  0  0  0  0  0  0  0  0  0  0  0
   25.7390   -0.4859   -9.7554 C   0  0  0  0  0  0  0  0  0  0  0  0
  2  1  1  6
  3  2  1  6
  2  4  1  0
  4  5  1  6
  5  6  1  1
  6  7  1  1
  7  8  1  6
  7  9  1  0
  9 10  1  6
 10 11  1  6
 11 12  1  0
 12 13  2  0
 13 14  1  0
 14 15  1  0
 14 16  2  0
 16 17  1  0
 17 18  1  0
 18 19  3  0
 17 20  2  0
 10  4  1  0
 20 12  1  0
M  END
$$$$
