_rank11
     RDKit          3D

 20 21  0  0  0  0  0  0  0  0999 V2000
   22.5556    2.8286  -10.3005 C   0  0  0  0  0  0  0  0  0  0  0  0
   22.7716    1.4943  -10.8860 C   0  0  2  0  0  0  0  0  0  0  0  0
   22.3833    1.4875  -12.3458 C   0  0  0  0  0  0  0  0  0  0  0  0
   22.2603    0.3000  -10.1369 C   0  0  1  0  0  0  0  0  0  0  0  0
   20.7823    0.2743  -10.0099 C   0  0  0  0  0  0  0  0  0  0  0  0
   20.0063   -0.8286  -10.5780 C   0  0  0  0  0  0  0  0  0  0  0  0
   20.7543   -2.1273  -10.7242 C   0  0  1  0  0  0  0  0  0  0  0  0
   19.9477   -3.1946  -11.4001 C   0  0  0  0  0  0  0  0  0  0  0  0
   22.0080   -1.7765  -11.5123 C   0  0  0  0  0  0  0  0  0  0  0  0
   22.8541   -1.0083  -10.5026 C   0  0  1  0  0  0  0  0  0  0  0  0
   24.1942   -0.9931  -10.8303 O   0  0  0  0  0  0  0  0  0  0  0  0
   25.2894   -0.6772  -10.0730 C   0  0  0  0  0  0  0  0  0  0  0  0
   25.1851   -0.3532   -8.7489 C   0  0  0  0  0  0  0  0  0  0  0  0
   26.3423   -0.0394   -8.0251 C   0  0  0  0  0  0  0  0  0  0  0  0
   26.2248    0.2829   -6.7084 F   0  0  0  0  0  0  0  0  0  0  0  0
   27.5850   -0.0477   -8.6092 C   0  0  0  0  0  0  0  0  0  0  0  0
   27.7061   -0.3772   -9.9605 C   0  0  0  0  0  0  0  0  0  0  0  0
   29.0013   -0.3978  -10.5867 C   0  0  0  0  0  0  0  0  0  0  0  0
   30.0511   -0.4133  -11.0832 N   0  0  0  0  0  0  0  0  0  0  0  0
   26.5563   -0.6792  -10.6418 C   0  0  0  0  0  0  0  0  0  0  0  0
  2  1  1  1
  3  2  1  6
  2  4  1  0
  4  5  1  6
  5  6  1  1
  6  7  1  1
  7  8  1  6
  7  9  1  0
  9 10  1  6
 10 11  1  6
 11 12  1  0
 12 13  2  0
 13 14  1  0
 14 15  1  0
 14 16  2  0
 16 17  1  0
 17 18  1  0
 18 19  3  0
 17 20  2  0
 10  4  1  0
 20 12  1  0
M  END
$$$$
