_rank2
     RDKit          3D

 20 21  0  0  0  0  0  0  0  0999 V2000
   25.5217    1.5551  -12.2823 C   0  0  0  0  0  0  0  0  0  0  0  0
   26.3598    0.3565  -12.4578 C   0  0  2  0  0  0  0  0  0  0  0  0
   26.1240   -0.2601  -13.8166 C   0  0  0  0  0  0  0  0  0  0  0  0
   26.3908   -0.6554  -11.3514 C   0  0  1  0  0  0  0  0  0  0  0  0
   27.7638   -0.9930  -10.9018 C   0  0  0  0  0  0  0  0  0  0  0  0
   28.1764   -0.7431   -9.5203 C   0  0  0  0  0  0  0  0  0  0  0  0
   27.0572   -0.7228   -8.5131 C   0  0  1  0  0  0  0  0  0  0  0  0
   27.5185   -0.3660   -7.1324 C   0  0  0  0  0  0  0  0  0  0  0  0
   26.0534    0.2842   -9.0557 C   0  0  0  0  0  0  0  0  0  0  0  0
   25.4307   -0.4448  -10.2416 C   0  0  1  0  0  0  0  0  0  0  0  0
   24.1996    0.0669  -10.5967 O   0  0  0  0  0  0  0  0  0  0  0  0
   22.9783   -0.5432  -10.6897 C   0  0  0  0  0  0  0  0  0  0  0  0
   22.5969   -1.2334  -11.8065 C   0  0  0  0  0  0  0  0  0  0  0  0
   21.3339   -1.8376  -11.8430 C   0  0  0  0  0  0  0  0  0  0  0  0
   20.9657   -2.5203  -12.9609 F   0  0  0  0  0  0  0  0  0  0  0  0
   20.4630   -1.7569  -10.7845 C   0  0  0  0  0  0  0  0  0  0  0  0
   20.8397   -1.0555   -9.6375 C   0  0  0  0  0  0  0  0  0  0  0  0
   19.9423   -0.9669   -8.5164 C   0  0  0  0  0  0  0  0  0  0  0  0
   19.2216   -0.9041   -7.6079 N   0  0  0  0  0  0  0  0  0  0  0  0
   22.0810   -0.4754   -9.6320 C   0  0  0  0  0  0  0  0  0  0  0  0
  2  1  1  1
  3  2  1  6
  2  4  1  0
  4  5  1  1
  5  6  1  1
  6  7  1  1
  7  8  1  1
  7  9  1  0
  9 10  1  6
 10 11  1  6
 11 12  1  0
 12 13  2  0
 13 14  1  0
 14 15  1  0
 14 16  2  0
 16 17  1  0
 17 18  1  0
 18 19  3  0
 17 20  2  0
 10  4  1  0
 20 12  1  0
M  END
$$$$
