_rank14
     RDKit          3D

 20 21  0  0  0  0  0  0  0  0999 V2000
   21.5226    2.6138  -11.5751 C   0  0  0  0  0  0  0  0  0  0  0  0
   22.6577    1.9817  -10.8808 C   0  0  2  0  0  0  0  0  0  0  0  0
   23.8184    1.7912  -11.8286 C   0  0  0  0  0  0  0  0  0  0  0  0
   22.3873    0.7741  -10.0336 C   0  0  1  0  0  0  0  0  0  0  0  0
   20.9416    0.5139   -9.8252 C   0  0  0  0  0  0  0  0  0  0  0  0
   20.3380   -0.7384  -10.2819 C   0  0  0  0  0  0  0  0  0  0  0  0
   21.2866   -1.9029  -10.3891 C   0  0  1  0  0  0  0  0  0  0  0  0
   20.6423   -3.1328  -10.9537 C   0  0  0  0  0  0  0  0  0  0  0  0
   22.4281   -1.4056  -11.2640 C   0  0  0  0  0  0  0  0  0  0  0  0
   23.1761   -0.4406  -10.3506 C   0  0  1  0  0  0  0  0  0  0  0  0
   24.4791   -0.2273  -10.7509 O   0  0  0  0  0  0  0  0  0  0  0  0
   25.6568   -0.6677  -10.2108 C   0  0  0  0  0  0  0  0  0  0  0  0
   26.4054   -1.6449  -10.8056 C   0  0  0  0  0  0  0  0  0  0  0  0
   27.6029   -2.0541  -10.2055 C   0  0  0  0  0  0  0  0  0  0  0  0
   28.3379   -3.0286  -10.8067 F   0  0  0  0  0  0  0  0  0  0  0  0
   28.0496   -1.4996   -9.0314 C   0  0  0  0  0  0  0  0  0  0  0  0
   27.2953   -0.5004   -8.4134 C   0  0  0  0  0  0  0  0  0  0  0  0
   27.7521    0.0964   -7.1865 C   0  0  0  0  0  0  0  0  0  0  0  0
   28.1284    0.5715   -6.1959 N   0  0  0  0  0  0  0  0  0  0  0  0
   26.1287   -0.1217   -9.0244 C   0  0  0  0  0  0  0  0  0  0  0  0
  2  1  1  6
  3  2  1  6
  2  4  1  0
  4  5  1  6
  5  6  1  1
  6  7  1  1
  7  8  1  6
  7  9  1  0
  9 10  1  6
 10 11  1  6
 11 12  1  0
 12 13  2  0
 13 14  1  0
 14 15  1  0
 14 16  2  0
 16 17  1  0
 17 18  1  0
 18 19  3  0
 17 20  2  0
 10  4  1  0
 20 12  1  0
M  END
$$$$
