_rank10
     RDKit          3D

 20 21  0  0  0  0  0  0  0  0999 V2000
   21.5355    1.9838  -10.5218 C   0  0  0  0  0  0  0  0  0  0  0  0
   20.8381    1.1849   -9.4993 C   0  0  2  0  0  0  0  0  0  0  0  0
   20.8707    1.8897   -8.1636 C   0  0  0  0  0  0  0  0  0  0  0  0
   21.1600   -0.2764   -9.3999 C   0  0  1  0  0  0  0  0  0  0  0  0
   19.9567   -1.1443   -9.3938 C   0  0  0  0  0  0  0  0  0  0  0  0
   19.7543   -2.1422  -10.4449 C   0  0  0  0  0  0  0  0  0  0  0  0
   21.0127   -2.6349  -11.1089 C   0  0  1  0  0  0  0  0  0  0  0  0
   20.7457   -3.5789  -12.2420 C   0  0  0  0  0  0  0  0  0  0  0  0
   21.7345   -1.3781  -11.5732 C   0  0  0  0  0  0  0  0  0  0  0  0
   22.2513   -0.7696  -10.2739 C   0  0  1  0  0  0  0  0  0  0  0  0
   23.3051    0.0984  -10.4725 O   0  0  0  0  0  0  0  0  0  0  0  0
   24.6550   -0.1260  -10.4549 C   0  0  0  0  0  0  0  0  0  0  0  0
   25.3390   -0.5146  -11.5731 C   0  0  0  0  0  0  0  0  0  0  0  0
   26.7208   -0.7286  -11.4935 C   0  0  0  0  0  0  0  0  0  0  0  0
   27.3896   -1.1166  -12.6131 F   0  0  0  0  0  0  0  0  0  0  0  0
   27.4124   -0.5585  -10.3196 C   0  0  0  0  0  0  0  0  0  0  0  0
   26.7265   -0.1615   -9.1701 C   0  0  0  0  0  0  0  0  0  0  0  0
   27.4366    0.0283   -7.9332 C   0  0  0  0  0  0  0  0  0  0  0  0
   28.0011    0.1832   -6.9302 N   0  0  0  0  0  0  0  0  0  0  0  0
   25.3755    0.0398   -9.2795 C   0  0  0  0  0  0  0  0  0  0  0  0
  2  1  1  6
  3  2  1  6
  2  4  1  0
  4  5  1  6
  5  6  1  1
  6  7  1  1
  7  8  1  6
  7  9  1  0
  9 10  1  6
 10 11  1  6
 11 12  1  0
 12 13  2  0
 13 14  1  0
 14 15  1  0
 14 16  2  0
 16 17  1  0
 17 18  1  0
 18 19  3  0
 17 20  2  0
 10  4  1  0
 20 12  1  0
M  END
$$$$
