_rank8
     RDKit          3D

 20 21  0  0  0  0  0  0  0  0999 V2000
   22.1956    2.0477  -10.5578 C   0  0  0  0  0  0  0  0  0  0  0  0
   20.9993    1.2884  -10.1550 C   0  0  2  0  0  0  0  0  0  0  0  0
   20.2408    2.0276   -9.0778 C   0  0  0  0  0  0  0  0  0  0  0  0
   21.1524   -0.1752   -9.8660 C   0  0  1  0  0  0  0  0  0  0  0  0
   19.8665   -0.9152   -9.8819 C   0  0  0  0  0  0  0  0  0  0  0  0
   19.6481   -2.0061  -10.8324 C   0  0  0  0  0  0  0  0  0  0  0  0
   20.8982   -2.6940  -11.3136 C   0  0  1  0  0  0  0  0  0  0  0  0
   20.6286   -3.7352  -12.3575 C   0  0  0  0  0  0  0  0  0  0  0  0
   21.7880   -1.5772  -11.8401 C   0  0  0  0  0  0  0  0  0  0  0  0
   22.2547   -0.8722  -10.5711 C   0  0  1  0  0  0  0  0  0  0  0  0
   23.4089   -0.1404  -10.7602 O   0  0  0  0  0  0  0  0  0  0  0  0
   24.5741   -0.1197  -10.0429 C   0  0  0  0  0  0  0  0  0  0  0  0
   24.6618   -0.6567   -8.7886 C   0  0  0  0  0  0  0  0  0  0  0  0
   25.8821   -0.6061   -8.1033 C   0  0  0  0  0  0  0  0  0  0  0  0
   25.9558   -1.1427   -6.8550 F   0  0  0  0  0  0  0  0  0  0  0  0
   26.9990   -0.0303   -8.6570 C   0  0  0  0  0  0  0  0  0  0  0  0
   26.9238    0.5214   -9.9373 C   0  0  0  0  0  0  0  0  0  0  0  0
   28.0862    1.1224  -10.5355 C   0  0  0  0  0  0  0  0  0  0  0  0
   29.0206    1.6057  -11.0274 N   0  0  0  0  0  0  0  0  0  0  0  0
   25.7165    0.4568  -10.5822 C   0  0  0  0  0  0  0  0  0  0  0  0
  2  1  1  1
  3  2  1  6
  2  4  1  0
  4  5  1  6
  5  6  1  1
  6  7  1  1
  7  8  1  6
  7  9  1  0
  9 10  1  6
 10 11  1  6
 11 12  1  0
 12 13  2  0
 13 14  1  0
 14 15  1  0
 14 16  2  0
 16 17  1  0
 17 18  1  0
 18 19  3  0
 17 20  2  0
 10  4  1  0
 20 12  1  0
M  END
$$$$
