_rank20
     RDKit          3D

 22 25  0  0  0  0  0  0  0  0999 V2000
   29.3443    1.2292  -10.3033 Br  0  0  0  0  0  0  0  0  0  0  0  0
   27.7903    0.3736   -9.6176 C   0  0  0  0  0  0  0  0  0  0  0  0
   27.8528   -0.3432   -8.4458 C   0  0  0  0  0  0  0  0  0  0  0  0
   26.7069   -0.9475   -7.9828 C   0  0  0  0  0  0  0  0  0  0  0  0
   25.5204   -0.8371   -8.6783 C   0  0  0  0  0  0  0  0  0  0  0  0
   25.4351   -0.1232   -9.8554 C   0  0  0  0  0  0  0  0  0  0  0  0
   24.1420    0.0026  -10.6217 C   0  0  2  0  0  0  0  0  0  0  0  0
   23.1768   -0.9333   -9.9825 C   0  0  0  0  0  0  0  0  0  0  0  0
   21.9363   -1.2513  -10.7516 C   0  0  1  0  0  0  0  0  0  0  0  0
   20.7450   -0.4957  -10.3033 C   0  0  0  0  0  0  0  0  0  0  0  0
   19.6840   -1.0703   -9.6532 C   0  0  0  0  0  0  0  0  0  0  0  0
   18.5840   -0.3022   -9.2483 C   0  0  0  0  0  0  0  0  0  0  0  0
   18.5353    1.0537   -9.4912 C   0  0  0  0  0  0  0  0  0  0  0  0
   19.6017    1.6283  -10.1441 C   0  0  0  0  0  0  0  0  0  0  0  0
   20.6834    0.8501  -10.5377 C   0  0  0  0  0  0  0  0  0  0  0  0
   22.1311   -1.2056  -12.1629 N   0  0  0  0  0  0  0  0  0  0  0  0
   21.2922   -1.4875  -13.1736 N   0  0  0  0  0  0  0  0  0  0  0  0
   21.9056   -1.3088  -14.3189 N   0  0  0  0  0  0  0  0  0  0  0  0
   23.1482   -0.9099  -14.1022 N   0  0  0  0  0  0  0  0  0  0  0  0
   23.2619   -0.8539  -12.7570 C   0  0  0  0  0  0  0  0  0  0  0  0
   24.3911   -0.4784  -11.9751 N   0  0  0  0  0  0  0  0  0  0  0  0
   26.5986    0.4745  -10.3003 C   0  0  0  0  0  0  0  0  0  0  0  0
  1  2  1  0
  2  3  2  0
  3  4  1  0
  4  5  2  0
  5  6  1  0
  7  6  1  1
  8  7  1  6
  8  9  1  0
  9 10  1  6
 10 11  2  0
 11 12  1  0
 12 13  2  0
 13 14  1  0
 14 15  2  0
  9 16  1  0
 16 17  1  0
 17 18  2  0
 18 19  1  0
 19 20  2  0
 20 21  1  0
  6 22  2  0
 22  2  1  0
 21  7  1  0
 15 10  1  0
 20 16  1  0
M  END
$$$$
