_rank6
     RDKit          3D

 22 25  0  0  0  0  0  0  0  0999 V2000
   19.1799   -0.8325   -7.3780 Br  0  0  0  0  0  0  0  0  0  0  0  0
   20.0417   -0.1694   -8.9384 C   0  0  0  0  0  0  0  0  0  0  0  0
   19.3607    0.6417   -9.8155 C   0  0  0  0  0  0  0  0  0  0  0  0
   20.0192    1.1009  -10.9327 C   0  0  0  0  0  0  0  0  0  0  0  0
   21.3340    0.7556  -11.1687 C   0  0  0  0  0  0  0  0  0  0  0  0
   22.0358   -0.0565  -10.3025 C   0  0  0  0  0  0  0  0  0  0  0  0
   23.4733   -0.4386  -10.5530 C   0  0  2  0  0  0  0  0  0  0  0  0
   24.3102    0.5801   -9.8614 C   0  0  0  0  0  0  0  0  0  0  0  0
   25.7565    0.6284  -10.2318 C   0  0  1  0  0  0  0  0  0  0  0  0
   26.6453   -0.0462   -9.2593 C   0  0  0  0  0  0  0  0  0  0  0  0
   26.9981   -1.3678   -9.3456 C   0  0  0  0  0  0  0  0  0  0  0  0
   27.8479   -1.9513   -8.3962 C   0  0  0  0  0  0  0  0  0  0  0  0
   28.3547   -1.2146   -7.3472 C   0  0  0  0  0  0  0  0  0  0  0  0
   27.9990    0.1120   -7.2628 C   0  0  0  0  0  0  0  0  0  0  0  0
   27.1553    0.6726   -8.2137 C   0  0  0  0  0  0  0  0  0  0  0  0
   25.9977    0.2333  -11.5800 N   0  0  0  0  0  0  0  0  0  0  0  0
   27.1342    0.2051  -12.2957 N   0  0  0  0  0  0  0  0  0  0  0  0
   26.8821   -0.2294  -13.5071 N   0  0  0  0  0  0  0  0  0  0  0  0
   25.5920   -0.4970  -13.6257 N   0  0  0  0  0  0  0  0  0  0  0  0
   25.0667   -0.2015  -12.4164 C   0  0  0  0  0  0  0  0  0  0  0  0
   23.7140   -0.3077  -11.9847 N   0  0  0  0  0  0  0  0  0  0  0  0
   21.3536   -0.5051   -9.1879 C   0  0  0  0  0  0  0  0  0  0  0  0
  1  2  1  0
  2  3  2  0
  3  4  1  0
  4  5  2  0
  5  6  1  0
  7  6  1  6
  8  7  1  6
  8  9  1  0
  9 10  1  1
 10 11  2  0
 11 12  1  0
 12 13  2  0
 13 14  1  0
 14 15  2  0
  9 16  1  0
 16 17  1  0
 17 18  2  0
 18 19  1  0
 19 20  2  0
 20 21  1  0
  6 22  2  0
 22  2  1  0
 21  7  1  0
 15 10  1  0
 20 16  1  0
M  END
$$$$
