_rank9
     RDKit          3D

 22 25  0  0  0  0  0  0  0  0999 V2000
   18.6552    1.4037  -11.7345 Br  0  0  0  0  0  0  0  0  0  0  0  0
   19.7795    0.4165  -10.5604 C   0  0  0  0  0  0  0  0  0  0  0  0
   19.2677   -0.1329   -9.4084 C   0  0  0  0  0  0  0  0  0  0  0  0
   20.1134   -0.8400   -8.5852 C   0  0  0  0  0  0  0  0  0  0  0  0
   21.4459   -0.9950   -8.9077 C   0  0  0  0  0  0  0  0  0  0  0  0
   21.9800   -0.4525  -10.0578 C   0  0  0  0  0  0  0  0  0  0  0  0
   23.4355   -0.6174  -10.4179 C   0  0  2  0  0  0  0  0  0  0  0  0
   24.1778    0.4427   -9.6820 C   0  0  0  0  0  0  0  0  0  0  0  0
   25.5790    0.7140  -10.1227 C   0  0  1  0  0  0  0  0  0  0  0  0
   26.6078    0.0854   -9.2640 C   0  0  0  0  0  0  0  0  0  0  0  0
   26.4921   -1.1774   -8.7440 C   0  0  0  0  0  0  0  0  0  0  0  0
   27.5023   -1.7221   -7.9398 C   0  0  0  0  0  0  0  0  0  0  0  0
   28.6426   -1.0051   -7.6472 C   0  0  0  0  0  0  0  0  0  0  0  0
   28.7564    0.2626   -8.1704 C   0  0  0  0  0  0  0  0  0  0  0  0
   27.7440    0.7853   -8.9656 C   0  0  0  0  0  0  0  0  0  0  0  0
   25.7815    0.4680  -11.5121 N   0  0  0  0  0  0  0  0  0  0  0  0
   26.8637    0.6511  -12.2866 N   0  0  0  0  0  0  0  0  0  0  0  0
   26.5917    0.2890  -13.5174 N   0  0  0  0  0  0  0  0  0  0  0  0
   25.3415   -0.1373  -13.5912 N   0  0  0  0  0  0  0  0  0  0  0  0
   24.8618   -0.0160  -12.3339 C   0  0  0  0  0  0  0  0  0  0  0  0
   23.5646   -0.3370  -11.8425 N   0  0  0  0  0  0  0  0  0  0  0  0
   21.1116    0.2530  -10.8684 C   0  0  0  0  0  0  0  0  0  0  0  0
  1  2  1  0
  2  3  2  0
  3  4  1  0
  4  5  2  0
  5  6  1  0
  7  6  1  1
  8  7  1  6
  8  9  1  0
  9 10  1  1
 10 11  2  0
 11 12  1  0
 12 13  2  0
 13 14  1  0
 14 15  2  0
  9 16  1  0
 16 17  1  0
 17 18  2  0
 18 19  1  0
 19 20  2  0
 20 21  1  0
  6 22  2  0
 22  2  1  0
 21  7  1  0
 15 10  1  0
 20 16  1  0
M  END
$$$$
