_rank7
     RDKit          3D

 24 26  0  0  0  0  0  0  0  0999 V2000
   25.7145    0.6971  -12.9391 O   0  0  0  0  0  0  0  0  0  0  0  0
   26.5826    0.3855  -12.1266 N   0  0  0  0  0  4  0  0  0  0  0  0
   27.8830    0.2996  -12.5015 O   0  0  0  0  0  1  0  0  0  0  0  0
   26.2212    0.0965  -10.7897 C   0  0  0  0  0  0  0  0  0  0  0  0
   25.0072   -0.4024  -10.4210 C   0  0  0  0  0  0  0  0  0  0  0  0
   23.9886   -0.6677  -11.3474 N   0  0  0  0  0  0  0  0  0  0  0  0
   22.5945   -0.5532  -11.1073 C   0  0  0  0  0  0  0  0  0  0  0  0
   22.1000    0.0438   -9.9443 C   0  0  0  0  0  0  0  0  0  0  0  0
   20.7550    0.1700   -9.6865 C   0  0  0  0  0  0  0  0  0  0  0  0
   19.8195   -0.2964  -10.5818 C   0  0  0  0  0  0  0  0  0  0  0  0
   18.3495   -0.1706  -10.3252 C   0  0  1  0  0  0  0  0  0  0  0  0
   17.7695    0.3517  -11.4852 F   0  0  0  0  0  0  0  0  0  0  0  0
   17.8415   -1.4165  -10.1249 F   0  0  0  0  0  0  0  0  0  0  0  0
   18.0723    0.6547   -9.2560 F   0  0  0  0  0  0  0  0  0  0  0  0
   20.2936   -0.8872  -11.7348 C   0  0  0  0  0  0  0  0  0  0  0  0
   21.6497   -1.0147  -11.9942 C   0  0  0  0  0  0  0  0  0  0  0  0
   22.1942   -1.7785  -13.4802 Cl  0  0  0  0  0  0  0  0  0  0  0  0
   24.7429   -0.6511   -9.0915 C   0  0  0  0  0  0  0  0  0  0  0  0
   25.6602   -0.4164   -8.0989 C   0  0  0  0  0  0  0  0  0  0  0  0
   26.8803    0.0857   -8.4748 C   0  0  0  0  0  0  0  0  0  0  0  0
   28.0023    0.4303   -7.7764 N   0  0  0  0  0  0  0  0  0  0  0  0
   28.8681    0.8533   -8.6497 O   0  0  0  0  0  0  0  0  0  0  0  0
   28.4104    0.8146   -9.8474 N   0  0  0  0  0  0  0  0  0  0  0  0
   27.1564    0.3372   -9.7948 C   0  0  0  0  0  0  0  0  0  0  0  0
  1  2  2  0
  2  3  1  0
  2  4  1  0
  4  5  2  0
  5  6  1  0
  6  7  1  0
  7  8  2  0
  8  9  1  0
  9 10  2  0
 10 11  1  0
 11 12  1  6
 11 13  1  0
 11 14  1  0
 10 15  1  0
 15 16  2  0
 16 17  1  0
  5 18  1  0
 18 19  2  0
 19 20  1  0
 20 21  2  0
 21 22  1  0
 22 23  1  0
 23 24  2  0
 24  4  1  0
 16  7  1  0
 24 20  1  0
M  CHG  2   2   1   3  -1
M  END
$$$$
