_rank3
     RDKit          3D

 24 26  0  0  0  0  0  0  0  0999 V2000
   26.2065    0.1159  -12.9218 O   0  0  0  0  0  0  0  0  0  0  0  0
   26.9040    0.3003  -11.9267 N   0  0  0  0  0  4  0  0  0  0  0  0
   28.1376    0.8523  -12.0383 O   0  0  0  0  0  1  0  0  0  0  0  0
   26.4234   -0.0822  -10.6523 C   0  0  0  0  0  0  0  0  0  0  0  0
   25.1098   -0.3197  -10.3747 C   0  0  0  0  0  0  0  0  0  0  0  0
   24.1009   -0.1937  -11.3402 N   0  0  0  0  0  0  0  0  0  0  0  0
   22.7523   -0.6112  -11.1944 C   0  0  0  0  0  0  0  0  0  0  0  0
   22.2018   -0.8779   -9.9376 C   0  0  0  0  0  0  0  0  0  0  0  0
   20.8984   -1.2818   -9.7666 C   0  0  0  0  0  0  0  0  0  0  0  0
   20.0636   -1.4441  -10.8486 C   0  0  0  0  0  0  0  0  0  0  0  0
   18.6404   -1.8821  -10.6892 C   0  0  1  0  0  0  0  0  0  0  0  0
   18.3918   -2.8477  -11.6694 F   0  0  0  0  0  0  0  0  0  0  0  0
   18.5083   -2.4744   -9.4719 F   0  0  0  0  0  0  0  0  0  0  0  0
   17.7512   -0.8379  -10.8308 F   0  0  0  0  0  0  0  0  0  0  0  0
   20.5935   -1.1833  -12.0954 C   0  0  0  0  0  0  0  0  0  0  0  0
   21.9078   -0.7765  -12.2676 C   0  0  0  0  0  0  0  0  0  0  0  0
   22.5277   -0.4607  -13.8812 Cl  0  0  0  0  0  0  0  0  0  0  0  0
   24.7334   -0.6860   -9.1006 C   0  0  0  0  0  0  0  0  0  0  0  0
   25.6337   -0.8264   -8.0752 C   0  0  0  0  0  0  0  0  0  0  0  0
   26.9542   -0.5862   -8.3593 C   0  0  0  0  0  0  0  0  0  0  0  0
   28.0929   -0.6283   -7.6063 N   0  0  0  0  0  0  0  0  0  0  0  0
   29.0735   -0.3064   -8.3973 O   0  0  0  0  0  0  0  0  0  0  0  0
   28.6751   -0.0598   -9.5914 N   0  0  0  0  0  0  0  0  0  0  0  0
   27.3424   -0.2215   -9.6235 C   0  0  0  0  0  0  0  0  0  0  0  0
  1  2  2  0
  2  3  1  0
  2  4  1  0
  4  5  2  0
  5  6  1  0
  6  7  1  0
  7  8  2  0
  8  9  1  0
  9 10  2  0
 10 11  1  0
 11 12  1  6
 11 13  1  0
 11 14  1  0
 10 15  1  0
 15 16  2  0
 16 17  1  0
  5 18  1  0
 18 19  2  0
 19 20  1  0
 20 21  2  0
 21 22  1  0
 22 23  1  0
 23 24  2  0
 24  4  1  0
 16  7  1  0
 24 20  1  0
M  CHG  2   2   1   3  -1
M  END
$$$$
