_rank8
     RDKit          3D

 22 25  0  0  0  0  0  0  0  0999 V2000
   19.1796    1.3518   -8.5390 Br  0  0  0  0  0  0  0  0  0  0  0  0
   19.9550    0.2967   -9.9184 C   0  0  0  0  0  0  0  0  0  0  0  0
   19.1635   -0.2541  -10.8986 C   0  0  0  0  0  0  0  0  0  0  0  0
   19.7623   -1.0111  -11.8790 C   0  0  0  0  0  0  0  0  0  0  0  0
   21.1271   -1.2135  -11.8793 C   0  0  0  0  0  0  0  0  0  0  0  0
   21.9396   -0.6705  -10.9061 C   0  0  0  0  0  0  0  0  0  0  0  0
   23.4324   -0.8867  -10.8993 C   0  0  2  0  0  0  0  0  0  0  0  0
   24.0501    0.4255  -10.5635 C   0  0  0  0  0  0  0  0  0  0  0  0
   25.5144    0.5672  -10.8227 C   0  0  1  0  0  0  0  0  0  0  0  0
   26.3528    0.4185   -9.6119 C   0  0  0  0  0  0  0  0  0  0  0  0
   26.5525   -0.7765   -8.9710 C   0  0  0  0  0  0  0  0  0  0  0  0
   27.3616   -0.8567   -7.8296 C   0  0  0  0  0  0  0  0  0  0  0  0
   27.9809    0.2627   -7.3167 C   0  0  0  0  0  0  0  0  0  0  0  0
   27.7787    1.4613   -7.9618 C   0  0  0  0  0  0  0  0  0  0  0  0
   26.9730    1.5208   -9.0923 C   0  0  0  0  0  0  0  0  0  0  0  0
   25.9639   -0.2276  -11.9172 N   0  0  0  0  0  0  0  0  0  0  0  0
   27.1742   -0.3245  -12.4921 N   0  0  0  0  0  0  0  0  0  0  0  0
   27.1256   -1.1852  -13.4803 N   0  0  0  0  0  0  0  0  0  0  0  0
   25.9012   -1.6748  -13.5859 N   0  0  0  0  0  0  0  0  0  0  0  0
   25.2008   -1.0645  -12.6048 C   0  0  0  0  0  0  0  0  0  0  0  0
   23.8283   -1.2239  -12.2611 N   0  0  0  0  0  0  0  0  0  0  0  0
   21.3157    0.0856   -9.9325 C   0  0  0  0  0  0  0  0  0  0  0  0
  1  2  1  0
  2  3  2  0
  3  4  1  0
  4  5  2  0
  5  6  1  0
  7  6  1  6
  8  7  1  6
  8  9  1  0
  9 10  1  1
 10 11  2  0
 11 12  1  0
 12 13  2  0
 13 14  1  0
 14 15  2  0
  9 16  1  0
 16 17  1  0
 17 18  2  0
 18 19  1  0
 19 20  2  0
 20 21  1  0
  6 22  2  0
 22  2  1  0
 21  7  1  0
 15 10  1  0
 20 16  1  0
M  END
$$$$
