_rank9
     RDKit          3D

 24 26  0  0  0  0  0  0  0  0999 V2000
   25.4542   -0.7693  -12.8162 O   0  0  0  0  0  0  0  0  0  0  0  0
   26.3301   -0.5631  -11.9790 N   0  0  0  0  0  4  0  0  0  0  0  0
   27.6372   -0.5285  -12.3385 O   0  0  0  0  0  1  0  0  0  0  0  0
   25.9743   -0.3763  -10.6225 C   0  0  0  0  0  0  0  0  0  0  0  0
   24.7066   -0.5212  -10.1420 C   0  0  0  0  0  0  0  0  0  0  0  0
   23.6235   -0.8631  -10.9643 N   0  0  0  0  0  0  0  0  0  0  0  0
   22.2621   -0.5420  -10.7241 C   0  0  0  0  0  0  0  0  0  0  0  0
   21.8887    0.6791  -10.1555 C   0  0  0  0  0  0  0  0  0  0  0  0
   20.5779    1.0174   -9.9134 C   0  0  0  0  0  0  0  0  0  0  0  0
   19.5570    0.1495  -10.2271 C   0  0  0  0  0  0  0  0  0  0  0  0
   18.1217    0.4941   -9.9743 C   0  0  1  0  0  0  0  0  0  0  0  0
   17.7674    1.4902  -10.8893 F   0  0  0  0  0  0  0  0  0  0  0  0
   17.3648   -0.6055  -10.2352 F   0  0  0  0  0  0  0  0  0  0  0  0
   17.9096    0.9477   -8.6897 F   0  0  0  0  0  0  0  0  0  0  0  0
   19.9111   -1.0593  -10.7899 C   0  0  0  0  0  0  0  0  0  0  0  0
   21.2328   -1.4004  -11.0335 C   0  0  0  0  0  0  0  0  0  0  0  0
   21.6230   -2.9562  -11.7513 Cl  0  0  0  0  0  0  0  0  0  0  0  0
   24.4531   -0.3160   -8.8031 C   0  0  0  0  0  0  0  0  0  0  0  0
   25.4336    0.0347   -7.9101 C   0  0  0  0  0  0  0  0  0  0  0  0
   26.7075    0.1793   -8.3983 C   0  0  0  0  0  0  0  0  0  0  0  0
   27.8977    0.5102   -7.8157 N   0  0  0  0  0  0  0  0  0  0  0  0
   28.7905    0.4967   -8.7611 O   0  0  0  0  0  0  0  0  0  0  0  0
   28.2886    0.1882   -9.9005 N   0  0  0  0  0  0  0  0  0  0  0  0
   26.9735   -0.0226   -9.7289 C   0  0  0  0  0  0  0  0  0  0  0  0
  1  2  2  0
  2  3  1  0
  2  4  1  0
  4  5  2  0
  5  6  1  0
  6  7  1  0
  7  8  2  0
  8  9  1  0
  9 10  2  0
 10 11  1  0
 11 12  1  6
 11 13  1  0
 11 14  1  0
 10 15  1  0
 15 16  2  0
 16 17  1  0
  5 18  1  0
 18 19  2  0
 19 20  1  0
 20 21  2  0
 21 22  1  0
 22 23  1  0
 23 24  2  0
 24  4  1  0
 16  7  1  0
 24 20  1  0
M  CHG  2   2   1   3  -1
M  END
$$$$
