_rank18
     RDKit          3D

 24 26  0  0  0  0  0  0  0  0999 V2000
   27.9015   -0.4611  -12.2384 O   0  0  0  0  0  0  0  0  0  0  0  0
   26.7651   -0.0608  -11.9953 N   0  0  0  0  0  4  0  0  0  0  0  0
   25.9911    0.4645  -12.9771 O   0  0  0  0  0  1  0  0  0  0  0  0
   26.2635   -0.1323  -10.6744 C   0  0  0  0  0  0  0  0  0  0  0  0
   24.9502   -0.3348  -10.3695 C   0  0  0  0  0  0  0  0  0  0  0  0
   23.9622   -0.4818  -11.3536 N   0  0  0  0  0  0  0  0  0  0  0  0
   22.5631   -0.5491  -11.1250 C   0  0  0  0  0  0  0  0  0  0  0  0
   22.0002   -0.1395   -9.9129 C   0  0  0  0  0  0  0  0  0  0  0  0
   20.6486   -0.1917   -9.6647 C   0  0  0  0  0  0  0  0  0  0  0  0
   19.7748   -0.6597  -10.6195 C   0  0  0  0  0  0  0  0  0  0  0  0
   18.2989   -0.7261  -10.3744 C   0  0  1  0  0  0  0  0  0  0  0  0
   18.1114   -0.8000   -8.9909 F   0  0  0  0  0  0  0  0  0  0  0  0
   17.7392    0.4333  -10.8136 F   0  0  0  0  0  0  0  0  0  0  0  0
   17.7151   -1.8183  -10.9806 F   0  0  0  0  0  0  0  0  0  0  0  0
   20.3166   -1.0666  -11.8212 C   0  0  0  0  0  0  0  0  0  0  0  0
   21.6795   -1.0142  -12.0710 C   0  0  0  0  0  0  0  0  0  0  0  0
   22.3118   -1.5483  -13.6211 Cl  0  0  0  0  0  0  0  0  0  0  0  0
   24.5523   -0.3874   -9.0512 C   0  0  0  0  0  0  0  0  0  0  0  0
   25.4306   -0.2429   -8.0074 C   0  0  0  0  0  0  0  0  0  0  0  0
   26.7510   -0.0393   -8.3191 C   0  0  0  0  0  0  0  0  0  0  0  0
   27.8717    0.1407   -7.5594 N   0  0  0  0  0  0  0  0  0  0  0  0
   28.8628    0.2881   -8.3884 O   0  0  0  0  0  0  0  0  0  0  0  0
   28.4874    0.2205   -9.6131 N   0  0  0  0  0  0  0  0  0  0  0  0
   27.1604    0.0147   -9.6274 C   0  0  0  0  0  0  0  0  0  0  0  0
  1  2  2  0
  2  3  1  0
  2  4  1  0
  4  5  2  0
  5  6  1  0
  6  7  1  0
  7  8  2  0
  8  9  1  0
  9 10  2  0
 10 11  1  0
 11 12  1  1
 11 13  1  0
 11 14  1  0
 10 15  1  0
 15 16  2  0
 16 17  1  0
  5 18  1  0
 18 19  2  0
 19 20  1  0
 20 21  2  0
 21 22  1  0
 22 23  1  0
 23 24  2  0
 24  4  1  0
 16  7  1  0
 24 20  1  0
M  CHG  2   2   1   3  -1
M  END
$$$$
