_rank15
     RDKit          3D

 22 25  0  0  0  0  0  0  0  0999 V2000
   18.5686   -1.4495  -12.7833 Br  0  0  0  0  0  0  0  0  0  0  0  0
   19.7618   -1.0155  -11.3673 C   0  0  0  0  0  0  0  0  0  0  0  0
   19.2802   -0.7859  -10.0999 C   0  0  0  0  0  0  0  0  0  0  0  0
   20.1754   -0.4747   -9.1028 C   0  0  0  0  0  0  0  0  0  0  0  0
   21.5271   -0.3945   -9.3677 C   0  0  0  0  0  0  0  0  0  0  0  0
   22.0317   -0.6210  -10.6312 C   0  0  0  0  0  0  0  0  0  0  0  0
   23.5079   -0.5356  -10.9293 C   0  0  2  0  0  0  0  0  0  0  0  0
   24.1555    0.0237   -9.7110 C   0  0  0  0  0  0  0  0  0  0  0  0
   25.5551    0.5237   -9.8609 C   0  0  1  0  0  0  0  0  0  0  0  0
   26.5833   -0.4233   -9.3740 C   0  0  0  0  0  0  0  0  0  0  0  0
   27.2615   -0.2640   -8.1937 C   0  0  0  0  0  0  0  0  0  0  0  0
   28.2226   -1.1972   -7.7821 C   0  0  0  0  0  0  0  0  0  0  0  0
   28.5151   -2.3032   -8.5510 C   0  0  0  0  0  0  0  0  0  0  0  0
   27.8328   -2.4608   -9.7356 C   0  0  0  0  0  0  0  0  0  0  0  0
   26.8835   -1.5247  -10.1267 C   0  0  0  0  0  0  0  0  0  0  0  0
   25.8284    1.0258  -11.1666 N   0  0  0  0  0  0  0  0  0  0  0  0
   26.9286    1.6104  -11.6690 N   0  0  0  0  0  0  0  0  0  0  0  0
   26.7291    1.9177  -12.9283 N   0  0  0  0  0  0  0  0  0  0  0  0
   25.5104    1.5509  -13.2894 N   0  0  0  0  0  0  0  0  0  0  0  0
   24.9734    1.0005  -12.1784 C   0  0  0  0  0  0  0  0  0  0  0  0
   23.6784    0.4350  -12.0034 N   0  0  0  0  0  0  0  0  0  0  0  0
   21.1136   -0.9318  -11.6158 C   0  0  0  0  0  0  0  0  0  0  0  0
  1  2  1  0
  2  3  2  0
  3  4  1  0
  4  5  2  0
  5  6  1  0
  7  6  1  1
  8  7  1  6
  8  9  1  0
  9 10  1  6
 10 11  2  0
 11 12  1  0
 12 13  2  0
 13 14  1  0
 14 15  2  0
  9 16  1  0
 16 17  1  0
 17 18  2  0
 18 19  1  0
 19 20  2  0
 20 21  1  0
  6 22  2  0
 22  2  1  0
 21  7  1  0
 15 10  1  0
 20 16  1  0
M  END
$$$$
