_rank13
     RDKit          3D

 24 26  0  0  0  0  0  0  0  0999 V2000
   25.9054    0.9716  -12.8477 O   0  0  0  0  0  0  0  0  0  0  0  0
   26.6681    0.4347  -12.0471 N   0  0  0  0  0  4  0  0  0  0  0  0
   27.9439    0.1381  -12.3983 O   0  0  0  0  0  1  0  0  0  0  0  0
   26.2069    0.1065  -10.7506 C   0  0  0  0  0  0  0  0  0  0  0  0
   24.9498   -0.3482  -10.4830 C   0  0  0  0  0  0  0  0  0  0  0  0
   23.9831   -0.5237  -11.4835 N   0  0  0  0  0  0  0  0  0  0  0  0
   22.5826   -0.6280  -11.2787 C   0  0  0  0  0  0  0  0  0  0  0  0
   21.9578   -0.0278  -10.1818 C   0  0  0  0  0  0  0  0  0  0  0  0
   20.6032   -0.1109   -9.9596 C   0  0  0  0  0  0  0  0  0  0  0  0
   19.7885   -0.8034  -10.8261 C   0  0  0  0  0  0  0  0  0  0  0  0
   18.3107   -0.9082  -10.6071 C   0  0  1  0  0  0  0  0  0  0  0  0
   17.9482    0.1174   -9.7288 F   0  0  0  0  0  0  0  0  0  0  0  0
   17.6850   -0.6863  -11.7944 F   0  0  0  0  0  0  0  0  0  0  0  0
   17.9444   -2.1261  -10.0746 F   0  0  0  0  0  0  0  0  0  0  0  0
   20.3918   -1.4002  -11.9139 C   0  0  0  0  0  0  0  0  0  0  0  0
   21.7577   -1.3166  -12.1374 C   0  0  0  0  0  0  0  0  0  0  0  0
   22.4700   -2.0994  -13.5402 Cl  0  0  0  0  0  0  0  0  0  0  0  0
   24.5877   -0.6406   -9.1859 C   0  0  0  0  0  0  0  0  0  0  0  0
   25.4476   -0.4935   -8.1272 C   0  0  0  0  0  0  0  0  0  0  0  0
   26.7115   -0.0357   -8.4014 C   0  0  0  0  0  0  0  0  0  0  0  0
   27.7998    0.2238   -7.6181 N   0  0  0  0  0  0  0  0  0  0  0  0
   28.7395    0.6413   -8.4142 O   0  0  0  0  0  0  0  0  0  0  0  0
   28.3601    0.6763   -9.6391 N   0  0  0  0  0  0  0  0  0  0  0  0
   27.0848    0.2586   -9.6883 C   0  0  0  0  0  0  0  0  0  0  0  0
  1  2  2  0
  2  3  1  0
  2  4  1  0
  4  5  2  0
  5  6  1  0
  6  7  1  0
  7  8  2  0
  8  9  1  0
  9 10  2  0
 10 11  1  0
 11 12  1  1
 11 13  1  0
 11 14  1  0
 10 15  1  0
 15 16  2  0
 16 17  1  0
  5 18  1  0
 18 19  2  0
 19 20  1  0
 20 21  2  0
 21 22  1  0
 22 23  1  0
 23 24  2  0
 24  4  1  0
 16  7  1  0
 24 20  1  0
M  CHG  2   2   1   3  -1
M  END
$$$$
