_rank19
     RDKit          3D

 24 26  0  0  0  0  0  0  0  0999 V2000
   25.6868   -0.0966  -13.0517 O   0  0  0  0  0  0  0  0  0  0  0  0
   26.2896    0.3595  -12.0825 N   0  0  0  0  0  4  0  0  0  0  0  0
   27.4346    1.0667  -12.2493 O   0  0  0  0  0  1  0  0  0  0  0  0
   25.7945    0.1310  -10.7771 C   0  0  0  0  0  0  0  0  0  0  0  0
   24.4704    0.0069  -10.4768 C   0  0  0  0  0  0  0  0  0  0  0  0
   23.4647    0.1069  -11.4488 N   0  0  0  0  0  0  0  0  0  0  0  0
   22.0833   -0.1482  -11.2466 C   0  0  0  0  0  0  0  0  0  0  0  0
   21.1464    0.8884  -11.2108 C   0  0  0  0  0  0  0  0  0  0  0  0
   19.8022    0.6704  -11.0186 C   0  0  0  0  0  0  0  0  0  0  0  0
   19.3127   -0.6047  -10.8495 C   0  0  0  0  0  0  0  0  0  0  0  0
   17.8536   -0.8689  -10.6394 C   0  0  1  0  0  0  0  0  0  0  0  0
   17.6972   -1.3043   -9.3199 F   0  0  0  0  0  0  0  0  0  0  0  0
   17.1814    0.3055  -10.7775 F   0  0  0  0  0  0  0  0  0  0  0  0
   17.3637   -1.8244  -11.5042 F   0  0  0  0  0  0  0  0  0  0  0  0
   20.2263   -1.6379  -10.8836 C   0  0  0  0  0  0  0  0  0  0  0  0
   21.5815   -1.4177  -11.0770 C   0  0  0  0  0  0  0  0  0  0  0  0
   22.6983   -2.7741  -11.1092 Cl  0  0  0  0  0  0  0  0  0  0  0  0
   24.0803   -0.2123   -9.1734 C   0  0  0  0  0  0  0  0  0  0  0  0
   24.9770   -0.3138   -8.1403 C   0  0  0  0  0  0  0  0  0  0  0  0
   26.3082   -0.1881   -8.4473 C   0  0  0  0  0  0  0  0  0  0  0  0
   27.4472   -0.2332   -7.6949 N   0  0  0  0  0  0  0  0  0  0  0  0
   28.4409   -0.0519   -8.5140 O   0  0  0  0  0  0  0  0  0  0  0  0
   28.0506    0.1064   -9.7256 N   0  0  0  0  0  0  0  0  0  0  0  0
   26.7100    0.0297   -9.7408 C   0  0  0  0  0  0  0  0  0  0  0  0
  1  2  2  0
  2  3  1  0
  2  4  1  0
  4  5  2  0
  5  6  1  0
  6  7  1  0
  7  8  2  0
  8  9  1  0
  9 10  2  0
 10 11  1  0
 11 12  1  1
 11 13  1  0
 11 14  1  0
 10 15  1  0
 15 16  2  0
 16 17  1  0
  5 18  1  0
 18 19  2  0
 19 20  1  0
 20 21  2  0
 21 22  1  0
 22 23  1  0
 23 24  2  0
 24  4  1  0
 16  7  1  0
 24 20  1  0
M  CHG  2   2   1   3  -1
M  END
$$$$
