_rank17
     RDKit          3D

 24 26  0  0  0  0  0  0  0  0999 V2000
   27.3577   -1.2367  -12.3128 O   0  0  0  0  0  0  0  0  0  0  0  0
   27.0460   -0.1677  -11.7925 N   0  0  0  0  0  4  0  0  0  0  0  0
   27.2979    1.0075  -12.4204 O   0  0  0  0  0  1  0  0  0  0  0  0
   26.4332   -0.1602  -10.5174 C   0  0  0  0  0  0  0  0  0  0  0  0
   25.1026   -0.3749  -10.3119 C   0  0  0  0  0  0  0  0  0  0  0  0
   24.2068   -0.6155  -11.3635 N   0  0  0  0  0  0  0  0  0  0  0  0
   22.7959   -0.7170  -11.2484 C   0  0  0  0  0  0  0  0  0  0  0  0
   22.1877   -1.1314  -10.0602 C   0  0  0  0  0  0  0  0  0  0  0  0
   20.8237   -1.2370   -9.9198 C   0  0  0  0  0  0  0  0  0  0  0  0
   19.9824   -0.9329  -10.9657 C   0  0  0  0  0  0  0  0  0  0  0  0
   18.4940   -1.0389  -10.8384 C   0  0  1  0  0  0  0  0  0  0  0  0
   18.2113   -1.3128   -9.4968 F   0  0  0  0  0  0  0  0  0  0  0  0
   17.9508    0.1700  -11.1446 F   0  0  0  0  0  0  0  0  0  0  0  0
   17.9689   -2.0338  -11.6356 F   0  0  0  0  0  0  0  0  0  0  0  0
   20.5692   -0.5215  -12.1445 C   0  0  0  0  0  0  0  0  0  0  0  0
   21.9445   -0.4156  -12.2859 C   0  0  0  0  0  0  0  0  0  0  0  0
   22.6347    0.1124  -13.8132 Cl  0  0  0  0  0  0  0  0  0  0  0  0
   24.5929   -0.3462   -9.0318 C   0  0  0  0  0  0  0  0  0  0  0  0
   25.3742   -0.1067   -7.9301 C   0  0  0  0  0  0  0  0  0  0  0  0
   26.7124    0.1088   -8.1419 C   0  0  0  0  0  0  0  0  0  0  0  0
   27.7591    0.3702   -7.3043 N   0  0  0  0  0  0  0  0  0  0  0  0
   28.8153    0.4853   -8.0542 O   0  0  0  0  0  0  0  0  0  0  0  0
   28.5490    0.3230   -9.2985 N   0  0  0  0  0  0  0  0  0  0  0  0
   27.2327    0.0824   -9.4110 C   0  0  0  0  0  0  0  0  0  0  0  0
  1  2  2  0
  2  3  1  0
  2  4  1  0
  4  5  2  0
  5  6  1  0
  6  7  1  0
  7  8  2  0
  8  9  1  0
  9 10  2  0
 10 11  1  0
 11 12  1  1
 11 13  1  0
 11 14  1  0
 10 15  1  0
 15 16  2  0
 16 17  1  0
  5 18  1  0
 18 19  2  0
 19 20  1  0
 20 21  2  0
 21 22  1  0
 22 23  1  0
 23 24  2  0
 24  4  1  0
 16  7  1  0
 24 20  1  0
M  CHG  2   2   1   3  -1
M  END
$$$$
