_rank8
     RDKit          3D

 24 26  0  0  0  0  0  0  0  0999 V2000
   27.1208   -0.7223  -12.6525 O   0  0  0  0  0  0  0  0  0  0  0  0
   26.4818    0.1711  -12.1008 N   0  0  0  0  0  4  0  0  0  0  0  0
   26.1789    1.3155  -12.7623 O   0  0  0  0  0  1  0  0  0  0  0  0
   26.0715    0.0128  -10.7562 C   0  0  0  0  0  0  0  0  0  0  0  0
   24.8018   -0.3138  -10.3820 C   0  0  0  0  0  0  0  0  0  0  0  0
   23.7705   -0.5145  -11.3106 N   0  0  0  0  0  0  0  0  0  0  0  0
   22.3808   -0.3898  -11.0512 C   0  0  0  0  0  0  0  0  0  0  0  0
   21.8705    0.6706  -10.2970 C   0  0  0  0  0  0  0  0  0  0  0  0
   20.5291    0.8174  -10.0317 C   0  0  0  0  0  0  0  0  0  0  0  0
   19.6133   -0.0931  -10.5075 C   0  0  0  0  0  0  0  0  0  0  0  0
   18.1475    0.0445  -10.2334 C   0  0  1  0  0  0  0  0  0  0  0  0
   18.0023    1.0045   -9.2274 F   0  0  0  0  0  0  0  0  0  0  0  0
   17.5442    0.5177  -11.3570 F   0  0  0  0  0  0  0  0  0  0  0  0
   17.5760   -1.1429   -9.8275 F   0  0  0  0  0  0  0  0  0  0  0  0
   20.1030   -1.1445  -11.2545 C   0  0  0  0  0  0  0  0  0  0  0  0
   21.4555   -1.2926  -11.5214 C   0  0  0  0  0  0  0  0  0  0  0  0
   22.0206   -2.6542  -12.4778 Cl  0  0  0  0  0  0  0  0  0  0  0  0
   24.4928   -0.4442   -9.0453 C   0  0  0  0  0  0  0  0  0  0  0  0
   25.4189   -0.2574   -8.0507 C   0  0  0  0  0  0  0  0  0  0  0  0
   26.6951    0.0710   -8.4322 C   0  0  0  0  0  0  0  0  0  0  0  0
   27.8415    0.3236   -7.7339 N   0  0  0  0  0  0  0  0  0  0  0  0
   28.7627    0.5842   -8.6140 O   0  0  0  0  0  0  0  0  0  0  0  0
   28.3189    0.5240   -9.8160 N   0  0  0  0  0  0  0  0  0  0  0  0
   27.0161    0.2034   -9.7594 C   0  0  0  0  0  0  0  0  0  0  0  0
  1  2  2  0
  2  3  1  0
  2  4  1  0
  4  5  2  0
  5  6  1  0
  6  7  1  0
  7  8  2  0
  8  9  1  0
  9 10  2  0
 10 11  1  0
 11 12  1  1
 11 13  1  0
 11 14  1  0
 10 15  1  0
 15 16  2  0
 16 17  1  0
  5 18  1  0
 18 19  2  0
 19 20  1  0
 20 21  2  0
 21 22  1  0
 22 23  1  0
 23 24  2  0
 24  4  1  0
 16  7  1  0
 24 20  1  0
M  CHG  2   2   1   3  -1
M  END
$$$$
