_rank16
     RDKit          3D

 24 26  0  0  0  0  0  0  0  0999 V2000
   27.8571    0.4545  -12.2691 O   0  0  0  0  0  0  0  0  0  0  0  0
   26.6547    0.2775  -12.0857 N   0  0  0  0  0  4  0  0  0  0  0  0
   25.7860    0.2918  -13.1269 O   0  0  0  0  0  1  0  0  0  0  0  0
   26.1676    0.0734  -10.7733 C   0  0  0  0  0  0  0  0  0  0  0  0
   24.8524   -0.1230  -10.4722 C   0  0  0  0  0  0  0  0  0  0  0  0
   23.8482   -0.1298  -11.4508 N   0  0  0  0  0  0  0  0  0  0  0  0
   22.4622   -0.3298  -11.2199 C   0  0  0  0  0  0  0  0  0  0  0  0
   21.7745    0.3864  -10.2362 C   0  0  0  0  0  0  0  0  0  0  0  0
   20.4320    0.2145   -9.9922 C   0  0  0  0  0  0  0  0  0  0  0  0
   19.6937   -0.6892  -10.7216 C   0  0  0  0  0  0  0  0  0  0  0  0
   18.2307   -0.8946  -10.4760 C   0  0  1  0  0  0  0  0  0  0  0  0
   18.1104   -1.7031   -9.3416 F   0  0  0  0  0  0  0  0  0  0  0  0
   17.6701    0.3122  -10.1941 F   0  0  0  0  0  0  0  0  0  0  0  0
   17.5991   -1.4965  -11.5437 F   0  0  0  0  0  0  0  0  0  0  0  0
   20.3596   -1.4026  -11.6967 C   0  0  0  0  0  0  0  0  0  0  0  0
   21.7132   -1.2294  -11.9423 C   0  0  0  0  0  0  0  0  0  0  0  0
   22.5078   -2.1685  -13.1971 Cl  0  0  0  0  0  0  0  0  0  0  0  0
   24.4695   -0.3112   -9.1618 C   0  0  0  0  0  0  0  0  0  0  0  0
   25.3647   -0.3103   -8.1225 C   0  0  0  0  0  0  0  0  0  0  0  0
   26.6868   -0.1122   -8.4304 C   0  0  0  0  0  0  0  0  0  0  0  0
   27.8219   -0.0515   -7.6731 N   0  0  0  0  0  0  0  0  0  0  0  0
   28.8067    0.1585   -8.4960 O   0  0  0  0  0  0  0  0  0  0  0  0
   28.4143    0.2394   -9.7145 N   0  0  0  0  0  0  0  0  0  0  0  0
   27.0815    0.0758   -9.7307 C   0  0  0  0  0  0  0  0  0  0  0  0
  1  2  2  0
  2  3  1  0
  2  4  1  0
  4  5  2  0
  5  6  1  0
  6  7  1  0
  7  8  2  0
  8  9  1  0
  9 10  2  0
 10 11  1  0
 11 12  1  1
 11 13  1  0
 11 14  1  0
 10 15  1  0
 15 16  2  0
 16 17  1  0
  5 18  1  0
 18 19  2  0
 19 20  1  0
 20 21  2  0
 21 22  1  0
 22 23  1  0
 23 24  2  0
 24  4  1  0
 16  7  1  0
 24 20  1  0
M  CHG  2   2   1   3  -1
M  END
$$$$
