_rank12
     RDKit          3D

 22 25  0  0  0  0  0  0  0  0999 V2000
   19.1442    1.1438   -7.9049 Br  0  0  0  0  0  0  0  0  0  0  0  0
   19.8874    0.4803   -9.5249 C   0  0  0  0  0  0  0  0  0  0  0  0
   19.0948    0.3187  -10.6369 C   0  0  0  0  0  0  0  0  0  0  0  0
   19.6700   -0.1639  -11.7897 C   0  0  0  0  0  0  0  0  0  0  0  0
   21.0126   -0.4790  -11.8301 C   0  0  0  0  0  0  0  0  0  0  0  0
   21.8258   -0.3247  -10.7268 C   0  0  0  0  0  0  0  0  0  0  0  0
   23.2945   -0.6666  -10.7626 C   0  0  2  0  0  0  0  0  0  0  0  0
   24.0321    0.6022  -10.5128 C   0  0  0  0  0  0  0  0  0  0  0  0
   25.4918    0.6070  -10.8304 C   0  0  1  0  0  0  0  0  0  0  0  0
   26.3619    0.4424   -9.6443 C   0  0  0  0  0  0  0  0  0  0  0  0
   27.0736    1.4681   -9.0788 C   0  0  0  0  0  0  0  0  0  0  0  0
   27.8785    1.2526   -7.9520 C   0  0  0  0  0  0  0  0  0  0  0  0
   27.9794    0.0033   -7.3784 C   0  0  0  0  0  0  0  0  0  0  0  0
   27.2640   -1.0249   -7.9482 C   0  0  0  0  0  0  0  0  0  0  0  0
   26.4713   -0.7915   -9.0651 C   0  0  0  0  0  0  0  0  0  0  0  0
   25.8299   -0.2719  -11.9004 N   0  0  0  0  0  0  0  0  0  0  0  0
   27.0044   -0.4973  -12.5125 N   0  0  0  0  0  0  0  0  0  0  0  0
   26.8453   -1.3946  -13.4556 N   0  0  0  0  0  0  0  0  0  0  0  0
   25.5812   -1.7826  -13.4938 N   0  0  0  0  0  0  0  0  0  0  0  0
   24.9733   -1.0711  -12.5192 C   0  0  0  0  0  0  0  0  0  0  0  0
   23.6069   -1.0975  -12.1196 N   0  0  0  0  0  0  0  0  0  0  0  0
   21.2258    0.1613   -9.5811 C   0  0  0  0  0  0  0  0  0  0  0  0
  1  2  1  0
  2  3  2  0
  3  4  1  0
  4  5  2  0
  5  6  1  0
  7  6  1  6
  8  7  1  6
  8  9  1  0
  9 10  1  1
 10 11  2  0
 11 12  1  0
 12 13  2  0
 13 14  1  0
 14 15  2  0
  9 16  1  0
 16 17  1  0
 17 18  2  0
 18 19  1  0
 19 20  2  0
 20 21  1  0
  6 22  2  0
 22  2  1  0
 21  7  1  0
 15 10  1  0
 20 16  1  0
M  END
$$$$
