_rank4
     RDKit          3D

 24 26  0  0  0  0  0  0  0  0999 V2000
   24.4973    1.1586  -12.4489 O   0  0  0  0  0  0  0  0  0  0  0  0
   25.4541    0.7306  -11.8070 N   0  0  0  0  0  4  0  0  0  0  0  0
   26.7188    0.8631  -12.2780 O   0  0  0  0  0  1  0  0  0  0  0  0
   25.2345    0.0775  -10.5714 C   0  0  0  0  0  0  0  0  0  0  0  0
   23.9987   -0.1726  -10.0526 C   0  0  0  0  0  0  0  0  0  0  0  0
   22.8169    0.2108  -10.7024 N   0  0  0  0  0  0  0  0  0  0  0  0
   21.6137   -0.5402  -10.7537 C   0  0  0  0  0  0  0  0  0  0  0  0
   21.6248   -1.9378  -10.7661 C   0  0  0  0  0  0  0  0  0  0  0  0
   20.4749   -2.6908  -10.8135 C   0  0  0  0  0  0  0  0  0  0  0  0
   19.2388   -2.0870  -10.8516 C   0  0  0  0  0  0  0  0  0  0  0  0
   17.9719   -2.8840  -10.9028 C   0  0  1  0  0  0  0  0  0  0  0  0
   17.2318   -2.4162  -11.9928 F   0  0  0  0  0  0  0  0  0  0  0  0
   18.2933   -4.1845  -11.1392 F   0  0  0  0  0  0  0  0  0  0  0  0
   17.2273   -2.7601   -9.7490 F   0  0  0  0  0  0  0  0  0  0  0  0
   19.2129   -0.7077  -10.8389 C   0  0  0  0  0  0  0  0  0  0  0  0
   20.3724    0.0512  -10.7916 C   0  0  0  0  0  0  0  0  0  0  0  0
   20.2766    1.8058  -10.7794 Cl  0  0  0  0  0  0  0  0  0  0  0  0
   23.8816   -0.8136   -8.8382 C   0  0  0  0  0  0  0  0  0  0  0  0
   24.9698   -1.2212   -8.1093 C   0  0  0  0  0  0  0  0  0  0  0  0
   26.2111   -0.9673   -8.6354 C   0  0  0  0  0  0  0  0  0  0  0  0
   27.4795   -1.2239   -8.1987 N   0  0  0  0  0  0  0  0  0  0  0  0
   28.2862   -0.7601   -9.1072 O   0  0  0  0  0  0  0  0  0  0  0  0
   27.6577   -0.2273  -10.0903 N   0  0  0  0  0  0  0  0  0  0  0  0
   26.3417   -0.3305   -9.8435 C   0  0  0  0  0  0  0  0  0  0  0  0
  1  2  2  0
  2  3  1  0
  2  4  1  0
  4  5  2  0
  5  6  1  0
  6  7  1  0
  7  8  2  0
  8  9  1  0
  9 10  2  0
 10 11  1  0
 11 12  1  6
 11 13  1  0
 11 14  1  0
 10 15  1  0
 15 16  2  0
 16 17  1  0
  5 18  1  0
 18 19  2  0
 19 20  1  0
 20 21  2  0
 21 22  1  0
 22 23  1  0
 23 24  2  0
 24  4  1  0
 16  7  1  0
 24 20  1  0
M  CHG  2   2   1   3  -1
M  END
$$$$
