_rank4
     RDKit          3D

 22 25  0  0  0  0  0  0  0  0999 V2000
   18.5316   -2.3452  -12.0600 Br  0  0  0  0  0  0  0  0  0  0  0  0
   19.6967   -1.2785  -11.0009 C   0  0  0  0  0  0  0  0  0  0  0  0
   19.1835   -0.3859  -10.0894 C   0  0  0  0  0  0  0  0  0  0  0  0
   20.0593    0.3675   -9.3423 C   0  0  0  0  0  0  0  0  0  0  0  0
   21.4228    0.2311   -9.5035 C   0  0  0  0  0  0  0  0  0  0  0  0
   21.9589   -0.6578  -10.4116 C   0  0  0  0  0  0  0  0  0  0  0  0
   23.4482   -0.8132  -10.5939 C   0  0  2  0  0  0  0  0  0  0  0  0
   24.0804    0.3727   -9.9536 C   0  0  0  0  0  0  0  0  0  0  0  0
   25.5131    0.6344  -10.2859 C   0  0  1  0  0  0  0  0  0  0  0  0
   26.4608    0.1811   -9.2431 C   0  0  0  0  0  0  0  0  0  0  0  0
   27.0632   -1.0500   -9.2506 C   0  0  0  0  0  0  0  0  0  0  0  0
   27.9566   -1.4223   -8.2371 C   0  0  0  0  0  0  0  0  0  0  0  0
   28.2567   -0.5626   -7.2024 C   0  0  0  0  0  0  0  0  0  0  0  0
   27.6506    0.6728   -7.1971 C   0  0  0  0  0  0  0  0  0  0  0  0
   26.7676    1.0238   -8.2108 C   0  0  0  0  0  0  0  0  0  0  0  0
   25.8682    0.1967  -11.5951 N   0  0  0  0  0  0  0  0  0  0  0  0
   27.0214    0.3093  -12.2748 N   0  0  0  0  0  0  0  0  0  0  0  0
   26.8911   -0.2396  -13.4588 N   0  0  0  0  0  0  0  0  0  0  0  0
   25.6673   -0.7234  -13.5941 N   0  0  0  0  0  0  0  0  0  0  0  0
   25.0539   -0.4397  -12.4241 C   0  0  0  0  0  0  0  0  0  0  0  0
   23.7205   -0.7389  -12.0240 N   0  0  0  0  0  0  0  0  0  0  0  0
   21.0600   -1.4031  -11.1501 C   0  0  0  0  0  0  0  0  0  0  0  0
  1  2  1  0
  2  3  2  0
  3  4  1  0
  4  5  2  0
  5  6  1  0
  7  6  1  6
  8  7  1  6
  8  9  1  0
  9 10  1  1
 10 11  2  0
 11 12  1  0
 12 13  2  0
 13 14  1  0
 14 15  2  0
  9 16  1  0
 16 17  1  0
 17 18  2  0
 18 19  1  0
 19 20  2  0
 20 21  1  0
  6 22  2  0
 22  2  1  0
 21  7  1  0
 15 10  1  0
 20 16  1  0
M  END
$$$$
