_rank11
     RDKit          3D

 24 26  0  0  0  0  0  0  0  0999 V2000
   25.8292   -0.2184  -13.0605 O   0  0  0  0  0  0  0  0  0  0  0  0
   26.4245    0.2603  -12.0976 N   0  0  0  0  0  4  0  0  0  0  0  0
   27.5530    0.9911  -12.2747 O   0  0  0  0  0  1  0  0  0  0  0  0
   25.9383    0.0334  -10.7885 C   0  0  0  0  0  0  0  0  0  0  0  0
   24.6161   -0.0866  -10.4785 C   0  0  0  0  0  0  0  0  0  0  0  0
   23.6036    0.0163  -11.4431 N   0  0  0  0  0  0  0  0  0  0  0  0
   22.2469   -0.3625  -11.2695 C   0  0  0  0  0  0  0  0  0  0  0  0
   21.4759    0.1428  -10.2189 C   0  0  0  0  0  0  0  0  0  0  0  0
   20.1591   -0.2051  -10.0278 C   0  0  0  0  0  0  0  0  0  0  0  0
   19.5321   -1.0843  -10.8808 C   0  0  0  0  0  0  0  0  0  0  0  0
   18.0993   -1.4787  -10.6951 C   0  0  1  0  0  0  0  0  0  0  0  0
   17.6931   -2.1274  -11.8652 F   0  0  0  0  0  0  0  0  0  0  0  0
   18.0304   -2.3731   -9.6725 F   0  0  0  0  0  0  0  0  0  0  0  0
   17.2828   -0.3931  -10.4591 F   0  0  0  0  0  0  0  0  0  0  0  0
   20.2810   -1.5903  -11.9231 C   0  0  0  0  0  0  0  0  0  0  0  0
   21.6087   -1.2397  -12.1153 C   0  0  0  0  0  0  0  0  0  0  0  0
   22.5130   -1.9184  -13.4605 Cl  0  0  0  0  0  0  0  0  0  0  0  0
   24.2349   -0.3046   -9.1722 C   0  0  0  0  0  0  0  0  0  0  0  0
   25.1390   -0.4087   -8.1458 C   0  0  0  0  0  0  0  0  0  0  0  0
   26.4682   -0.2872   -8.4626 C   0  0  0  0  0  0  0  0  0  0  0  0
   27.6126   -0.3357   -7.7186 N   0  0  0  0  0  0  0  0  0  0  0  0
   28.6008   -0.1575   -8.5450 O   0  0  0  0  0  0  0  0  0  0  0  0
   28.2021    0.0019   -9.7537 N   0  0  0  0  0  0  0  0  0  0  0  0
   26.8611   -0.0706   -9.7590 C   0  0  0  0  0  0  0  0  0  0  0  0
  1  2  2  0
  2  3  1  0
  2  4  1  0
  4  5  2  0
  5  6  1  0
  6  7  1  0
  7  8  2  0
  8  9  1  0
  9 10  2  0
 10 11  1  0
 11 12  1  6
 11 13  1  0
 11 14  1  0
 10 15  1  0
 15 16  2  0
 16 17  1  0
  5 18  1  0
 18 19  2  0
 19 20  1  0
 20 21  2  0
 21 22  1  0
 22 23  1  0
 23 24  2  0
 24  4  1  0
 16  7  1  0
 24 20  1  0
M  CHG  2   2   1   3  -1
M  END
$$$$
