_rank11
     RDKit          3D

 18 19  0  0  0  0  0  0  0  0999 V2000
   26.4169    0.5095  -12.2785 C   0  0  0  0  0  0  0  0  0  0  0  0
   26.6421   -0.1147  -10.9115 C   0  0  2  0  0  0  0  0  0  0  0  0
   27.8065   -1.0777  -10.9319 C   0  0  0  0  0  0  0  0  0  0  0  0
   25.3678   -0.9027  -10.5354 C   0  0  0  0  0  0  0  0  0  0  0  0
   24.3056   -0.7585  -10.1455 N   0  0  0  0  0  0  0  0  0  0  0  0
   23.3652   -1.6634   -9.9193 C   0  0  0  0  0  0  0  0  0  0  0  0
   22.0854   -1.4122   -9.4387 O   0  0  0  0  0  0  0  0  0  0  0  0
   20.9586   -1.0983  -10.0965 C   0  0  0  0  0  0  0  0  0  0  0  0
   20.4475   -1.7312  -11.1930 C   0  0  0  0  0  0  0  0  0  0  0  0
   19.2548   -1.3359  -11.8224 C   0  0  0  0  0  0  0  0  0  0  0  0
   18.7930   -1.9997  -12.9072 F   0  0  0  0  0  0  0  0  0  0  0  0
   18.5453   -0.2652  -11.3333 C   0  0  0  0  0  0  0  0  0  0  0  0
   19.0385    0.4002  -10.2172 C   0  0  0  0  0  0  0  0  0  0  0  0
   18.2583    1.5020   -9.7380 C   0  0  0  0  0  0  0  0  0  0  0  0
   17.6010    2.4029   -9.3562 N   0  0  0  0  0  0  0  0  0  0  0  0
   20.1998   -0.0033   -9.6251 C   0  0  0  0  0  0  0  0  0  0  0  0
   23.7353   -2.9414  -10.1955 N   0  0  0  0  0  0  0  0  0  0  0  0
   25.4738   -2.7307  -10.7810 S   0  0  0  0  0  0  0  0  0  0  0  0
  1  2  1  1
  3  2  1  1
  2  4  1  6
  4  5  2  0
  5  6  1  0
  6  7  1  0
  7  8  1  0
  8  9  2  0
  9 10  1  0
 10 11  1  0
 10 12  2  0
 12 13  1  0
 13 14  1  0
 14 15  3  0
 13 16  2  0
  6 17  2  0
 17 18  1  0
 18  4  1  0
 16  8  1  0
M  END
$$$$
