_rank18
     RDKit          3D

 18 19  0  0  0  0  0  0  0  0999 V2000
   17.8472   -0.9373  -10.6217 C   0  0  0  0  0  0  0  0  0  0  0  0
   18.8612    0.1267  -11.0076 C   0  0  2  0  0  0  0  0  0  0  0  0
   18.7442    0.4933  -12.4689 C   0  0  0  0  0  0  0  0  0  0  0  0
   20.2719   -0.4539  -10.7649 C   0  0  0  0  0  0  0  0  0  0  0  0
   21.3771   -0.2283  -10.9351 N   0  0  0  0  0  0  0  0  0  0  0  0
   22.4409   -0.9364  -10.5872 C   0  0  0  0  0  0  0  0  0  0  0  0
   23.7665   -0.5969  -10.8313 O   0  0  0  0  0  0  0  0  0  0  0  0
   24.8214   -0.5710  -10.0022 C   0  0  0  0  0  0  0  0  0  0  0  0
   24.9567   -1.2540   -8.8279 C   0  0  0  0  0  0  0  0  0  0  0  0
   26.1015   -1.1701   -8.0173 C   0  0  0  0  0  0  0  0  0  0  0  0
   26.1831   -1.8697   -6.8620 F   0  0  0  0  0  0  0  0  0  0  0  0
   27.1530   -0.3715   -8.3987 C   0  0  0  0  0  0  0  0  0  0  0  0
   27.0470    0.3365   -9.5900 C   0  0  0  0  0  0  0  0  0  0  0  0
   28.1728    1.1458   -9.9505 C   0  0  0  0  0  0  0  0  0  0  0  0
   29.0999    1.8022  -10.2653 N   0  0  0  0  0  0  0  0  0  0  0  0
   25.9238    0.2382  -10.3586 C   0  0  0  0  0  0  0  0  0  0  0  0
   22.1579   -2.0950   -9.9360 N   0  0  0  0  0  0  0  0  0  0  0  0
   20.3125   -2.0720   -9.8742 S   0  0  0  0  0  0  0  0  0  0  0  0
  1  2  1  1
  3  2  1  1
  2  4  1  6
  4  5  2  0
  5  6  1  0
  6  7  1  0
  7  8  1  0
  8  9  2  0
  9 10  1  0
 10 11  1  0
 10 12  2  0
 12 13  1  0
 13 14  1  0
 14 15  3  0
 13 16  2  0
  6 17  2  0
 17 18  1  0
 18  4  1  0
 16  8  1  0
M  END
$$$$
