_rank4
     RDKit          3D

 18 19  0  0  0  0  0  0  0  0999 V2000
   28.2061   -0.1904   -8.5568 C   0  0  0  0  0  0  0  0  0  0  0  0
   27.7781   -0.4324   -9.9947 C   0  0  2  0  0  0  0  0  0  0  0  0
   28.1566    0.7293  -10.8838 C   0  0  0  0  0  0  0  0  0  0  0  0
   26.2401   -0.5758  -10.0128 C   0  0  0  0  0  0  0  0  0  0  0  0
   25.3196   -0.2958  -10.6256 N   0  0  0  0  0  0  0  0  0  0  0  0
   24.0456   -0.5813  -10.4033 C   0  0  0  0  0  0  0  0  0  0  0  0
   22.9704   -0.2024  -11.1986 O   0  0  0  0  0  0  0  0  0  0  0  0
   21.6598   -0.4573  -11.0631 C   0  0  0  0  0  0  0  0  0  0  0  0
   21.0068   -1.6010  -11.4229 C   0  0  0  0  0  0  0  0  0  0  0  0
   19.6253   -1.7862  -11.2438 C   0  0  0  0  0  0  0  0  0  0  0  0
   19.0287   -2.9414  -11.6185 F   0  0  0  0  0  0  0  0  0  0  0  0
   18.8682   -0.7868  -10.6809 C   0  0  0  0  0  0  0  0  0  0  0  0
   19.5033    0.3901  -10.3027 C   0  0  0  0  0  0  0  0  0  0  0  0
   18.6745    1.3973   -9.7103 C   0  0  0  0  0  0  0  0  0  0  0  0
   18.0090    2.2339   -9.2135 N   0  0  0  0  0  0  0  0  0  0  0  0
   20.8463    0.5451  -10.4883 C   0  0  0  0  0  0  0  0  0  0  0  0
   23.8198   -1.3120   -9.2801 N   0  0  0  0  0  0  0  0  0  0  0  0
   25.5246   -1.5383   -8.6077 S   0  0  0  0  0  0  0  0  0  0  0  0
  1  2  1  1
  3  2  1  1
  2  4  1  1
  4  5  2  0
  5  6  1  0
  6  7  1  0
  7  8  1  0
  8  9  2  0
  9 10  1  0
 10 11  1  0
 10 12  2  0
 12 13  1  0
 13 14  1  0
 14 15  3  0
 13 16  2  0
  6 17  2  0
 17 18  1  0
 18  4  1  0
 16  8  1  0
M  END
$$$$
