_rank9
     RDKit          3D

 18 19  0  0  0  0  0  0  0  0999 V2000
   18.1491   -1.8314  -11.5546 C   0  0  0  0  0  0  0  0  0  0  0  0
   18.6871   -0.8685  -10.5093 C   0  0  2  0  0  0  0  0  0  0  0  0
   18.1473    0.5273  -10.7182 C   0  0  0  0  0  0  0  0  0  0  0  0
   20.2241   -0.8209  -10.6564 C   0  0  0  0  0  0  0  0  0  0  0  0
   21.1802   -0.6848  -10.0494 N   0  0  0  0  0  0  0  0  0  0  0  0
   22.4411   -0.7085  -10.4540 C   0  0  0  0  0  0  0  0  0  0  0  0
   23.5623   -0.5319   -9.6517 O   0  0  0  0  0  0  0  0  0  0  0  0
   24.8669   -0.5775   -9.9631 C   0  0  0  0  0  0  0  0  0  0  0  0
   25.4124   -0.9865  -11.1459 C   0  0  0  0  0  0  0  0  0  0  0  0
   26.7963   -1.0016  -11.3898 C   0  0  0  0  0  0  0  0  0  0  0  0
   27.2834   -1.4168  -12.5818 F   0  0  0  0  0  0  0  0  0  0  0  0
   27.6682   -0.5896  -10.4105 C   0  0  0  0  0  0  0  0  0  0  0  0
   27.1444   -0.1661   -9.1948 C   0  0  0  0  0  0  0  0  0  0  0  0
   28.0918    0.2645   -8.2103 C   0  0  0  0  0  0  0  0  0  0  0  0
   28.8623    0.6373   -7.3997 N   0  0  0  0  0  0  0  0  0  0  0  0
   25.7964   -0.1619   -8.9832 C   0  0  0  0  0  0  0  0  0  0  0  0
   22.6012   -0.9264  -11.7857 N   0  0  0  0  0  0  0  0  0  0  0  0
   20.8573   -1.0857  -12.3716 S   0  0  0  0  0  0  0  0  0  0  0  0
  1  2  1  1
  3  2  1  1
  2  4  1  6
  4  5  2  0
  5  6  1  0
  6  7  1  0
  7  8  1  0
  8  9  2  0
  9 10  1  0
 10 11  1  0
 10 12  2  0
 12 13  1  0
 13 14  1  0
 14 15  3  0
 13 16  2  0
  6 17  2  0
 17 18  1  0
 18  4  1  0
 16  8  1  0
M  END
$$$$
