_rank14
     RDKit          3D

 18 19  0  0  0  0  0  0  0  0999 V2000
   17.7597   -1.6716  -10.8629 C   0  0  0  0  0  0  0  0  0  0  0  0
   18.4841   -0.4091  -10.4262 C   0  0  2  0  0  0  0  0  0  0  0  0
   18.2153    0.7352  -11.3757 C   0  0  0  0  0  0  0  0  0  0  0  0
   20.0002   -0.7047  -10.4401 C   0  0  0  0  0  0  0  0  0  0  0  0
   20.9875   -0.3532   -9.9897 N   0  0  0  0  0  0  0  0  0  0  0  0
   22.2100   -0.8278  -10.1750 C   0  0  0  0  0  0  0  0  0  0  0  0
   23.3741   -0.3438   -9.5895 O   0  0  0  0  0  0  0  0  0  0  0  0
   24.6436   -0.3837  -10.0227 C   0  0  0  0  0  0  0  0  0  0  0  0
   25.0645   -0.5704  -11.3079 C   0  0  0  0  0  0  0  0  0  0  0  0
   26.4203   -0.5975  -11.6766 C   0  0  0  0  0  0  0  0  0  0  0  0
   26.7820   -0.7858  -12.9667 F   0  0  0  0  0  0  0  0  0  0  0  0
   27.3929   -0.4297  -10.7202 C   0  0  0  0  0  0  0  0  0  0  0  0
   26.9972   -0.2364   -9.4020 C   0  0  0  0  0  0  0  0  0  0  0  0
   28.0466   -0.0549   -8.4437 C   0  0  0  0  0  0  0  0  0  0  0  0
   28.9218    0.0817   -7.6659 N   0  0  0  0  0  0  0  0  0  0  0  0
   25.6738   -0.2152   -9.0702 C   0  0  0  0  0  0  0  0  0  0  0  0
   22.2810   -1.8839  -11.0271 N   0  0  0  0  0  0  0  0  0  0  0  0
   20.5148   -2.1184  -11.5123 S   0  0  0  0  0  0  0  0  0  0  0  0
  1  2  1  1
  3  2  1  1
  2  4  1  6
  4  5  2  0
  5  6  1  0
  6  7  1  0
  7  8  1  0
  8  9  2  0
  9 10  1  0
 10 11  1  0
 10 12  2  0
 12 13  1  0
 13 14  1  0
 14 15  3  0
 13 16  2  0
  6 17  2  0
 17 18  1  0
 18  4  1  0
 16  8  1  0
M  END
$$$$
