_rank1
     RDKit          3D

 18 19  0  0  0  0  0  0  0  0999 V2000
   27.1725   -0.3352   -7.9019 C   0  0  0  0  0  0  0  0  0  0  0  0
   27.3189   -0.3120   -9.4143 C   0  0  2  0  0  0  0  0  0  0  0  0
   27.9379    0.9830   -9.8868 C   0  0  0  0  0  0  0  0  0  0  0  0
   25.9060   -0.4263  -10.0282 C   0  0  0  0  0  0  0  0  0  0  0  0
   24.9878   -1.1029  -10.0477 N   0  0  0  0  0  0  0  0  0  0  0  0
   23.8384   -0.9385  -10.6849 C   0  0  0  0  0  0  0  0  0  0  0  0
   22.7576   -1.8122  -10.6632 O   0  0  0  0  0  0  0  0  0  0  0  0
   21.4409   -1.5642  -10.7388 C   0  0  0  0  0  0  0  0  0  0  0  0
   20.4862   -2.3706  -11.2886 C   0  0  0  0  0  0  0  0  0  0  0  0
   19.1226   -2.0330  -11.3251 C   0  0  0  0  0  0  0  0  0  0  0  0
   18.2179   -2.8706  -11.8825 F   0  0  0  0  0  0  0  0  0  0  0  0
   18.6982   -0.8410  -10.7885 C   0  0  0  0  0  0  0  0  0  0  0  0
   19.6455    0.0024  -10.2201 C   0  0  0  0  0  0  0  0  0  0  0  0
   19.1533    1.2275   -9.6640 C   0  0  0  0  0  0  0  0  0  0  0  0
   18.7658    2.2448   -9.2119 N   0  0  0  0  0  0  0  0  0  0  0  0
   20.9639   -0.3488  -10.1983 C   0  0  0  0  0  0  0  0  0  0  0  0
   23.7582    0.2040  -11.4161 N   0  0  0  0  0  0  0  0  0  0  0  0
   25.4067    0.9802  -11.1169 S   0  0  0  0  0  0  0  0  0  0  0  0
  1  2  1  1
  3  2  1  1
  2  4  1  6
  4  5  2  0
  5  6  1  0
  6  7  1  0
  7  8  1  0
  8  9  2  0
  9 10  1  0
 10 11  1  0
 10 12  2  0
 12 13  1  0
 13 14  1  0
 14 15  3  0
 13 16  2  0
  6 17  2  0
 17 18  1  0
 18  4  1  0
 16  8  1  0
M  END
$$$$
