_rank20
     RDKit          3D

 18 19  0  0  0  0  0  0  0  0999 V2000
   26.5805    0.6962   -8.8686 C   0  0  0  0  0  0  0  0  0  0  0  0
   26.7138   -0.8113   -9.0055 C   0  0  2  0  0  0  0  0  0  0  0  0
   27.9414   -1.1844   -9.8037 C   0  0  0  0  0  0  0  0  0  0  0  0
   25.4693   -1.3299   -9.7594 C   0  0  0  0  0  0  0  0  0  0  0  0
   24.4059   -1.0337  -10.0470 N   0  0  0  0  0  0  0  0  0  0  0  0
   23.5109   -1.7052  -10.7558 C   0  0  0  0  0  0  0  0  0  0  0  0
   22.2251   -1.2787  -11.0668 O   0  0  0  0  0  0  0  0  0  0  0  0
   21.5824   -0.1485  -10.7341 C   0  0  0  0  0  0  0  0  0  0  0  0
   22.1128    1.1081  -10.6764 C   0  0  0  0  0  0  0  0  0  0  0  0
   21.3648    2.2425  -10.3178 C   0  0  0  0  0  0  0  0  0  0  0  0
   21.9414    3.4659  -10.2770 F   0  0  0  0  0  0  0  0  0  0  0  0
   20.0326    2.1132  -10.0060 C   0  0  0  0  0  0  0  0  0  0  0  0
   19.4620    0.8468  -10.0563 C   0  0  0  0  0  0  0  0  0  0  0  0
   18.0684    0.7646   -9.7343 C   0  0  0  0  0  0  0  0  0  0  0  0
   16.9184    0.6875   -9.4872 N   0  0  0  0  0  0  0  0  0  0  0  0
   20.2107   -0.2388  -10.4067 C   0  0  0  0  0  0  0  0  0  0  0  0
   23.9359   -2.9189  -11.1949 N   0  0  0  0  0  0  0  0  0  0  0  0
   25.6554   -3.0000  -10.5269 S   0  0  0  0  0  0  0  0  0  0  0  0
  1  2  1  1
  3  2  1  1
  2  4  1  6
  4  5  2  0
  5  6  1  0
  6  7  1  0
  7  8  1  0
  8  9  2  0
  9 10  1  0
 10 11  1  0
 10 12  2  0
 12 13  1  0
 13 14  1  0
 14 15  3  0
 13 16  2  0
  6 17  2  0
 17 18  1  0
 18  4  1  0
 16  8  1  0
M  END
$$$$
