_rank1
     RDKit          3D

 20 21  0  0  0  0  0  0  0  0999 V2000
   28.1528    0.5799   -9.5395 C   0  0  0  0  0  0  0  0  0  0  0  0
   26.7374    0.5327   -8.9633 C   0  0  1  0  0  0  0  0  0  0  0  0
   25.7262    0.3063  -10.0683 C   0  0  0  0  0  0  0  0  0  0  0  0
   26.1085   -1.0854  -10.5280 C   0  0  2  0  0  0  0  0  0  0  0  0
   24.9983   -1.8076  -11.0790 N   0  0  0  0  0  0  0  0  0  0  0  0
   23.7088   -1.1653  -11.0659 C   0  0  0  0  0  0  0  0  0  0  0  0
   23.6475    0.0734  -10.9627 O   0  0  0  0  0  0  0  0  0  0  0  0
   22.5089   -1.9039  -11.1672 N   0  0  0  0  0  0  0  0  0  0  0  0
   21.2118   -1.4729  -10.8842 C   0  0  0  0  0  0  0  0  0  0  0  0
   20.1744   -2.4080  -10.9573 C   0  0  0  0  0  0  0  0  0  0  0  0
   18.8621   -2.0878  -10.6981 C   0  0  0  0  0  0  0  0  0  0  0  0
   17.8552   -2.9725  -10.7638 F   0  0  0  0  0  0  0  0  0  0  0  0
   18.5430   -0.7941  -10.3504 C   0  0  0  0  0  0  0  0  0  0  0  0
   19.5257    0.1493  -10.2675 C   0  0  0  0  0  0  0  0  0  0  0  0
   19.1789    1.4969   -9.9033 C   0  0  0  0  0  0  0  0  0  0  0  0
   18.8798    2.5785   -9.6105 N   0  0  0  0  0  0  0  0  0  0  0  0
   20.8501   -0.2114  -10.5380 C   0  0  0  0  0  0  0  0  0  0  0  0
   26.5842   -1.6796   -9.2479 C   0  0  0  0  0  0  0  0  0  0  0  0
   26.8788   -2.8854   -9.0885 O   0  0  0  0  0  0  0  0  0  0  0  0
   26.6559   -0.7146   -8.2582 O   0  0  0  0  0  0  0  0  0  0  0  0
  1  2  1  6
  2  3  1  0
  3  4  1  6
  4  5  1  1
  5  6  1  0
  6  7  2  0
  6  8  1  0
  8  9  1  0
  9 10  2  0
 10 11  1  0
 11 12  1  0
 11 13  2  0
 13 14  1  0
 14 15  1  0
 15 16  3  0
 14 17  2  0
  4 18  1  0
 18 19  2  0
 18 20  1  0
  2 20  1  1
 17  9  1  0
M  END
$$$$
