_rank18
     RDKit          3D

 20 21  0  0  0  0  0  0  0  0999 V2000
   28.4993   -1.4538   -8.9661 C   0  0  0  0  0  0  0  0  0  0  0  0
   28.3640   -1.0958  -10.4464 C   0  0  1  0  0  0  0  0  0  0  0  0
   27.2649   -1.9170  -11.0887 C   0  0  0  0  0  0  0  0  0  0  0  0
   26.0483   -1.3967  -10.3515 C   0  0  2  0  0  0  0  0  0  0  0  0
   24.8496   -1.4880  -11.1342 N   0  0  0  0  0  0  0  0  0  0  0  0
   23.6120   -1.0920  -10.5123 C   0  0  0  0  0  0  0  0  0  0  0  0
   23.5702   -0.9513   -9.2765 O   0  0  0  0  0  0  0  0  0  0  0  0
   22.4414   -0.8583  -11.2677 N   0  0  0  0  0  0  0  0  0  0  0  0
   21.1777   -0.4962  -10.7984 C   0  0  0  0  0  0  0  0  0  0  0  0
   21.0396   -0.1921   -9.4403 C   0  0  0  0  0  0  0  0  0  0  0  0
   19.8400    0.1756   -8.8767 C   0  0  0  0  0  0  0  0  0  0  0  0
   19.6903    0.4705   -7.5761 F   0  0  0  0  0  0  0  0  0  0  0  0
   18.7192    0.2511   -9.6733 C   0  0  0  0  0  0  0  0  0  0  0  0
   18.8107   -0.0377  -11.0040 C   0  0  0  0  0  0  0  0  0  0  0  0
   17.6326    0.0450  -11.8249 C   0  0  0  0  0  0  0  0  0  0  0  0
   16.6750    0.0957  -12.4773 N   0  0  0  0  0  0  0  0  0  0  0  0
   20.0470   -0.4083  -11.5440 C   0  0  0  0  0  0  0  0  0  0  0  0
   26.4536    0.0157  -10.1092 C   0  0  0  0  0  0  0  0  0  0  0  0
   25.7025    0.9025   -9.6449 O   0  0  0  0  0  0  0  0  0  0  0  0
   27.7756    0.2131  -10.4682 O   0  0  0  0  0  0  0  0  0  0  0  0
  1  2  1  6
  2  3  1  0
  3  4  1  6
  4  5  1  6
  5  6  1  0
  6  7  2  0
  6  8  1  0
  8  9  1  0
  9 10  2  0
 10 11  1  0
 11 12  1  0
 11 13  2  0
 13 14  1  0
 14 15  1  0
 15 16  3  0
 14 17  2  0
  4 18  1  0
 18 19  2  0
 18 20  1  0
  2 20  1  1
 17  9  1  0
M  END
$$$$
