_rank11
     RDKit          3D

 20 21  0  0  0  0  0  0  0  0999 V2000
   18.3295   -0.6822  -12.4483 C   0  0  0  0  0  0  0  0  0  0  0  0
   18.2524   -1.5278  -11.1769 C   0  0  1  0  0  0  0  0  0  0  0  0
   19.4979   -2.3782  -11.0334 C   0  0  0  0  0  0  0  0  0  0  0  0
   20.5551   -1.3106  -10.8416 C   0  0  2  0  0  0  0  0  0  0  0  0
   21.6714   -1.7738  -10.0689 N   0  0  0  0  0  0  0  0  0  0  0  0
   22.9825   -1.6685  -10.6567 C   0  0  0  0  0  0  0  0  0  0  0  0
   23.0869   -1.5266  -11.8887 O   0  0  0  0  0  0  0  0  0  0  0  0
   24.1559   -1.7218   -9.8721 N   0  0  0  0  0  0  0  0  0  0  0  0
   25.3402   -1.0057  -10.0531 C   0  0  0  0  0  0  0  0  0  0  0  0
   25.4660   -0.2164  -11.2008 C   0  0  0  0  0  0  0  0  0  0  0  0
   26.5899    0.5277  -11.4747 C   0  0  0  0  0  0  0  0  0  0  0  0
   26.7266    1.2899  -12.5707 F   0  0  0  0  0  0  0  0  0  0  0  0
   27.6437    0.5029  -10.5886 C   0  0  0  0  0  0  0  0  0  0  0  0
   27.5616   -0.2546   -9.4563 C   0  0  0  0  0  0  0  0  0  0  0  0
   28.6693   -0.2717   -8.5390 C   0  0  0  0  0  0  0  0  0  0  0  0
   29.5512   -0.2957   -7.7861 N   0  0  0  0  0  0  0  0  0  0  0  0
   26.4032   -0.9992   -9.2093 C   0  0  0  0  0  0  0  0  0  0  0  0
   19.7700   -0.2685  -10.1236 C   0  0  0  0  0  0  0  0  0  0  0  0
   20.2571    0.7668   -9.6164 O   0  0  0  0  0  0  0  0  0  0  0  0
   18.4271   -0.6022  -10.0941 O   0  0  0  0  0  0  0  0  0  0  0  0
  1  2  1  6
  2  3  1  0
  3  4  1  6
  4  5  1  1
  5  6  1  0
  6  7  2  0
  6  8  1  0
  8  9  1  0
  9 10  2  0
 10 11  1  0
 11 12  1  0
 11 13  2  0
 13 14  1  0
 14 15  1  0
 15 16  3  0
 14 17  2  0
  4 18  1  0
 18 19  2  0
 18 20  1  0
  2 20  1  1
 17  9  1  0
M  END
$$$$
