_rank14
     RDKit          3D

 20 21  0  0  0  0  0  0  0  0999 V2000
   18.1347    0.5430  -10.3692 C   0  0  0  0  0  0  0  0  0  0  0  0
   18.2728   -0.6137  -11.3594 C   0  0  1  0  0  0  0  0  0  0  0  0
   19.5618   -0.4839  -12.1446 C   0  0  0  0  0  0  0  0  0  0  0  0
   20.5882   -0.6624  -11.0451 C   0  0  2  0  0  0  0  0  0  0  0  0
   21.8206   -1.2162  -11.5272 N   0  0  0  0  0  0  0  0  0  0  0  0
   22.9842   -0.3667  -11.5209 C   0  0  0  0  0  0  0  0  0  0  0  0
   23.3756    0.1363  -12.5897 O   0  0  0  0  0  0  0  0  0  0  0  0
   23.6952   -0.0880  -10.3325 N   0  0  0  0  0  0  0  0  0  0  0  0
   25.0668   -0.2130  -10.1061 C   0  0  0  0  0  0  0  0  0  0  0  0
   25.8389   -0.8663  -11.0721 C   0  0  0  0  0  0  0  0  0  0  0  0
   27.1971   -1.0429  -10.9468 C   0  0  0  0  0  0  0  0  0  0  0  0
   27.9523   -1.6671  -11.8638 F   0  0  0  0  0  0  0  0  0  0  0  0
   27.8362   -0.5602   -9.8265 C   0  0  0  0  0  0  0  0  0  0  0  0
   27.1196    0.0835   -8.8598 C   0  0  0  0  0  0  0  0  0  0  0  0
   27.7992    0.5829   -7.6947 C   0  0  0  0  0  0  0  0  0  0  0  0
   28.3302    0.9835   -6.7446 N   0  0  0  0  0  0  0  0  0  0  0  0
   25.7392    0.2455   -9.0199 C   0  0  0  0  0  0  0  0  0  0  0  0
   19.8668   -1.6015  -10.1420 C   0  0  0  0  0  0  0  0  0  0  0  0
   20.3747   -2.1624   -9.1451 O   0  0  0  0  0  0  0  0  0  0  0  0
   18.5570   -1.7690  -10.5566 O   0  0  0  0  0  0  0  0  0  0  0  0
  1  2  1  6
  2  3  1  0
  3  4  1  6
  4  5  1  6
  5  6  1  0
  6  7  2  0
  6  8  1  0
  8  9  1  0
  9 10  2  0
 10 11  1  0
 11 12  1  0
 11 13  2  0
 13 14  1  0
 14 15  1  0
 15 16  3  0
 14 17  2  0
  4 18  1  0
 18 19  2  0
 18 20  1  0
  2 20  1  1
 17  9  1  0
M  END
$$$$
