_rank17
     RDKit          3D

 20 21  0  0  0  0  0  0  0  0999 V2000
   28.9317   -1.3977  -10.4280 C   0  0  0  0  0  0  0  0  0  0  0  0
   28.7623   -0.0020   -9.8272 C   0  0  1  0  0  0  0  0  0  0  0  0
   27.5339    0.6732  -10.4015 C   0  0  0  0  0  0  0  0  0  0  0  0
   26.4358   -0.2215   -9.8648 C   0  0  2  0  0  0  0  0  0  0  0  0
   25.1942    0.4753   -9.6896 N   0  0  0  0  0  0  0  0  0  0  0  0
   23.9965   -0.1568  -10.1808 C   0  0  0  0  0  0  0  0  0  0  0  0
   24.0874   -1.0273  -11.0654 O   0  0  0  0  0  0  0  0  0  0  0  0
   22.7184    0.1845   -9.6852 N   0  0  0  0  0  0  0  0  0  0  0  0
   21.4745   -0.1429  -10.2271 C   0  0  0  0  0  0  0  0  0  0  0  0
   21.4394   -1.0104  -11.3236 C   0  0  0  0  0  0  0  0  0  0  0  0
   20.2677   -1.3964  -11.9319 C   0  0  0  0  0  0  0  0  0  0  0  0
   20.2165   -2.2275  -12.9843 F   0  0  0  0  0  0  0  0  0  0  0  0
   19.0709   -0.9150  -11.4498 C   0  0  0  0  0  0  0  0  0  0  0  0
   19.0610   -0.0661  -10.3813 C   0  0  0  0  0  0  0  0  0  0  0  0
   17.8042    0.4295   -9.8877 C   0  0  0  0  0  0  0  0  0  0  0  0
   16.7967    0.8248   -9.4708 N   0  0  0  0  0  0  0  0  0  0  0  0
   20.2716    0.3058   -9.7869 C   0  0  0  0  0  0  0  0  0  0  0  0
   27.0308   -0.6423   -8.5660 C   0  0  0  0  0  0  0  0  0  0  0  0
   26.4257   -1.2886   -7.6815 O   0  0  0  0  0  0  0  0  0  0  0  0
   28.3456   -0.2203   -8.4713 O   0  0  0  0  0  0  0  0  0  0  0  0
  1  2  1  6
  2  3  1  0
  3  4  1  6
  4  5  1  1
  5  6  1  0
  6  7  2  0
  6  8  1  0
  8  9  1  0
  9 10  2  0
 10 11  1  0
 11 12  1  0
 11 13  2  0
 13 14  1  0
 14 15  1  0
 15 16  3  0
 14 17  2  0
  4 18  1  0
 18 19  2  0
 18 20  1  0
  2 20  1  1
 17  9  1  0
M  END
$$$$
