_rank16
     RDKit          3D

 20 21  0  0  0  0  0  0  0  0999 V2000
   28.0722   -0.5471   -8.6867 C   0  0  0  0  0  0  0  0  0  0  0  0
   27.9347   -1.4429   -9.9181 C   0  0  1  0  0  0  0  0  0  0  0  0
   26.4790   -1.7845  -10.1612 C   0  0  0  0  0  0  0  0  0  0  0  0
   25.9136   -0.4184  -10.4906 C   0  0  2  0  0  0  0  0  0  0  0  0
   24.7732   -0.4892  -11.3579 N   0  0  0  0  0  0  0  0  0  0  0  0
   23.4793   -0.6663  -10.7496 C   0  0  0  0  0  0  0  0  0  0  0  0
   23.4048   -1.1739   -9.6158 O   0  0  0  0  0  0  0  0  0  0  0  0
   22.2897   -0.2791  -11.4057 N   0  0  0  0  0  0  0  0  0  0  0  0
   21.0421   -0.0220  -10.8352 C   0  0  0  0  0  0  0  0  0  0  0  0
   19.9018   -0.2366  -11.6160 C   0  0  0  0  0  0  0  0  0  0  0  0
   18.6267   -0.0144  -11.1507 C   0  0  0  0  0  0  0  0  0  0  0  0
   17.5225   -0.2152  -11.8864 F   0  0  0  0  0  0  0  0  0  0  0  0
   18.4519    0.4389   -9.8621 C   0  0  0  0  0  0  0  0  0  0  0  0
   19.5384    0.6611   -9.0668 C   0  0  0  0  0  0  0  0  0  0  0  0
   19.3420    1.1346   -7.7229 C   0  0  0  0  0  0  0  0  0  0  0  0
   19.1982    1.5300   -6.6421 N   0  0  0  0  0  0  0  0  0  0  0  0
   20.8211    0.4246   -9.5727 C   0  0  0  0  0  0  0  0  0  0  0  0
   27.0861    0.2140  -11.1563 C   0  0  0  0  0  0  0  0  0  0  0  0
   27.0621    1.3204  -11.7407 O   0  0  0  0  0  0  0  0  0  0  0  0
   28.2065   -0.5902  -11.0401 O   0  0  0  0  0  0  0  0  0  0  0  0
  1  2  1  6
  2  3  1  0
  3  4  1  6
  4  5  1  6
  5  6  1  0
  6  7  2  0
  6  8  1  0
  8  9  1  0
  9 10  2  0
 10 11  1  0
 11 12  1  0
 11 13  2  0
 13 14  1  0
 14 15  1  0
 15 16  3  0
 14 17  2  0
  4 18  1  0
 18 19  2  0
 18 20  1  0
  2 20  1  6
 17  9  1  0
M  END
$$$$
