_rank3
     RDKit          3D

 20 21  0  0  0  0  0  0  0  0999 V2000
   28.0595    0.9841   -8.8598 C   0  0  0  0  0  0  0  0  0  0  0  0
   27.7225   -0.4893   -8.6287 C   0  0  1  0  0  0  0  0  0  0  0  0
   26.2294   -0.7137   -8.7519 C   0  0  0  0  0  0  0  0  0  0  0  0
   26.0092   -0.3903  -10.2152 C   0  0  2  0  0  0  0  0  0  0  0  0
   24.8921   -1.0966  -10.7730 N   0  0  0  0  0  0  0  0  0  0  0  0
   23.5813   -0.7871  -10.2616 C   0  0  0  0  0  0  0  0  0  0  0  0
   23.4323    0.2121   -9.5349 O   0  0  0  0  0  0  0  0  0  0  0  0
   22.4573   -1.5881  -10.5627 N   0  0  0  0  0  0  0  0  0  0  0  0
   21.1274   -1.1840  -10.6900 C   0  0  0  0  0  0  0  0  0  0  0  0
   20.2403   -2.0329  -11.3597 C   0  0  0  0  0  0  0  0  0  0  0  0
   18.9108   -1.7300  -11.5400 C   0  0  0  0  0  0  0  0  0  0  0  0
   18.0466   -2.5329  -12.1799 F   0  0  0  0  0  0  0  0  0  0  0  0
   18.4196   -0.5428  -11.0443 C   0  0  0  0  0  0  0  0  0  0  0  0
   19.2519    0.3141  -10.3844 C   0  0  0  0  0  0  0  0  0  0  0  0
   18.7263    1.5509   -9.8716 C   0  0  0  0  0  0  0  0  0  0  0  0
   18.3037    2.5407   -9.4395 N   0  0  0  0  0  0  0  0  0  0  0  0
   20.5989   -0.0259  -10.2192 C   0  0  0  0  0  0  0  0  0  0  0  0
   27.3042   -0.8404  -10.7968 C   0  0  0  0  0  0  0  0  0  0  0  0
   27.5499   -0.9068  -12.0221 O   0  0  0  0  0  0  0  0  0  0  0  0
   28.1993   -1.1754   -9.7956 O   0  0  0  0  0  0  0  0  0  0  0  0
  1  2  1  6
  2  3  1  0
  3  4  1  6
  4  5  1  6
  5  6  1  0
  6  7  2  0
  6  8  1  0
  8  9  1  0
  9 10  2  0
 10 11  1  0
 11 12  1  0
 11 13  2  0
 13 14  1  0
 14 15  1  0
 15 16  3  0
 14 17  2  0
  4 18  1  0
 18 19  2  0
 18 20  1  0
  2 20  1  6
 17  9  1  0
M  END
$$$$
