_rank9
     RDKit          3D

 20 21  0  0  0  0  0  0  0  0999 V2000
   17.9696   -2.4308  -10.6632 C   0  0  0  0  0  0  0  0  0  0  0  0
   18.0528   -0.9042  -10.6738 C   0  0  1  0  0  0  0  0  0  0  0  0
   19.0629   -0.4246   -9.6519 C   0  0  0  0  0  0  0  0  0  0  0  0
   20.3462   -0.9835  -10.2309 C   0  0  2  0  0  0  0  0  0  0  0  0
   21.4955   -0.2000   -9.8803 N   0  0  0  0  0  0  0  0  0  0  0  0
   22.7761   -0.6277  -10.3827 C   0  0  0  0  0  0  0  0  0  0  0  0
   22.9435   -1.8243  -10.6808 O   0  0  0  0  0  0  0  0  0  0  0  0
   23.8500    0.2752  -10.5469 N   0  0  0  0  0  0  0  0  0  0  0  0
   25.2166    0.0054  -10.4587 C   0  0  0  0  0  0  0  0  0  0  0  0
   25.8980   -0.3430  -11.6293 C   0  0  0  0  0  0  0  0  0  0  0  0
   27.2434   -0.6280  -11.6524 C   0  0  0  0  0  0  0  0  0  0  0  0
   27.9122   -0.9637  -12.7663 F   0  0  0  0  0  0  0  0  0  0  0  0
   27.9617   -0.5714  -10.4788 C   0  0  0  0  0  0  0  0  0  0  0  0
   27.3348   -0.2355   -9.3140 C   0  0  0  0  0  0  0  0  0  0  0  0
   28.0965   -0.1800   -8.0952 C   0  0  0  0  0  0  0  0  0  0  0  0
   28.7138   -0.1552   -7.1137 N   0  0  0  0  0  0  0  0  0  0  0  0
   25.9649    0.0483   -9.3272 C   0  0  0  0  0  0  0  0  0  0  0  0
   20.0453   -0.9169  -11.6879 C   0  0  0  0  0  0  0  0  0  0  0  0
   20.8744   -1.1441  -12.5974 O   0  0  0  0  0  0  0  0  0  0  0  0
   18.7223   -0.5690  -11.8982 O   0  0  0  0  0  0  0  0  0  0  0  0
  1  2  1  6
  2  3  1  0
  3  4  1  6
  4  5  1  6
  5  6  1  0
  6  7  2  0
  6  8  1  0
  8  9  1  0
  9 10  2  0
 10 11  1  0
 11 12  1  0
 11 13  2  0
 13 14  1  0
 14 15  1  0
 15 16  3  0
 14 17  2  0
  4 18  1  0
 18 19  2  0
 18 20  1  0
  2 20  1  6
 17  9  1  0
M  END
$$$$
