_rank7
     RDKit          3D

 20 21  0  0  0  0  0  0  0  0999 V2000
   28.7131    0.3210   -9.8973 C   0  0  0  0  0  0  0  0  0  0  0  0
   27.6688    0.5048   -8.7958 C   0  0  1  0  0  0  0  0  0  0  0  0
   26.2734    0.3254   -9.3575 C   0  0  0  0  0  0  0  0  0  0  0  0
   26.3078   -1.1364   -9.7530 C   0  0  2  0  0  0  0  0  0  0  0  0
   25.0114   -1.7489   -9.7105 N   0  0  0  0  0  0  0  0  0  0  0  0
   23.8777   -0.9437  -10.0874 C   0  0  0  0  0  0  0  0  0  0  0  0
   24.0398    0.0009  -10.8812 O   0  0  0  0  0  0  0  0  0  0  0  0
   22.5839   -1.1969   -9.5799 N   0  0  0  0  0  0  0  0  0  0  0  0
   21.3590   -0.8121  -10.1274 C   0  0  0  0  0  0  0  0  0  0  0  0
   20.8720   -1.5288  -11.2253 C   0  0  0  0  0  0  0  0  0  0  0  0
   19.6773   -1.2322  -11.8389 C   0  0  0  0  0  0  0  0  0  0  0  0
   19.1958   -1.9094  -12.8927 F   0  0  0  0  0  0  0  0  0  0  0  0
   18.9187   -0.1868  -11.3612 C   0  0  0  0  0  0  0  0  0  0  0  0
   19.3579    0.5382  -10.2916 C   0  0  0  0  0  0  0  0  0  0  0  0
   18.5560    1.6275   -9.8026 C   0  0  0  0  0  0  0  0  0  0  0  0
   17.9056    2.4953   -9.3915 N   0  0  0  0  0  0  0  0  0  0  0  0
   20.5781    0.2087   -9.6917 C   0  0  0  0  0  0  0  0  0  0  0  0
   27.2212   -1.6841   -8.7120 C   0  0  0  0  0  0  0  0  0  0  0  0
   27.4505   -2.9015   -8.5349 O   0  0  0  0  0  0  0  0  0  0  0  0
   27.7819   -0.6613   -7.9669 O   0  0  0  0  0  0  0  0  0  0  0  0
  1  2  1  6
  2  3  1  0
  3  4  1  6
  4  5  1  1
  5  6  1  0
  6  7  2  0
  6  8  1  0
  8  9  1  0
  9 10  2  0
 10 11  1  0
 11 12  1  0
 11 13  2  0
 13 14  1  0
 14 15  1  0
 15 16  3  0
 14 17  2  0
  4 18  1  0
 18 19  2  0
 18 20  1  0
  2 20  1  1
 17  9  1  0
M  END
$$$$
