_rank12
     RDKit          3D

 20 21  0  0  0  0  0  0  0  0999 V2000
   18.1358   -0.9730  -12.0982 C   0  0  0  0  0  0  0  0  0  0  0  0
   18.5812   -0.8964  -10.6376 C   0  0  1  0  0  0  0  0  0  0  0  0
   19.4987   -2.0551  -10.3052 C   0  0  0  0  0  0  0  0  0  0  0  0
   20.6876   -1.7445  -11.1910 C   0  0  2  0  0  0  0  0  0  0  0  0
   21.9188   -2.2523  -10.6580 N   0  0  0  0  0  0  0  0  0  0  0  0
   22.6992   -1.3751   -9.8231 C   0  0  0  0  0  0  0  0  0  0  0  0
   22.6001   -1.4658   -8.5860 O   0  0  0  0  0  0  0  0  0  0  0  0
   23.5761   -0.4125  -10.3708 N   0  0  0  0  0  0  0  0  0  0  0  0
   24.9713   -0.4427  -10.3983 C   0  0  0  0  0  0  0  0  0  0  0  0
   25.6000   -0.8491  -11.5797 C   0  0  0  0  0  0  0  0  0  0  0  0
   26.9675   -0.9142  -11.7124 C   0  0  0  0  0  0  0  0  0  0  0  0
   27.5864   -1.3019  -12.8382 F   0  0  0  0  0  0  0  0  0  0  0  0
   27.7629   -0.5669  -10.6432 C   0  0  0  0  0  0  0  0  0  0  0  0
   27.1893   -0.1647   -9.4720 C   0  0  0  0  0  0  0  0  0  0  0  0
   28.0314    0.1953   -8.3629 C   0  0  0  0  0  0  0  0  0  0  0  0
   28.6950    0.4825   -7.4561 N   0  0  0  0  0  0  0  0  0  0  0  0
   25.7949   -0.1102   -9.3721 C   0  0  0  0  0  0  0  0  0  0  0  0
   20.6496   -0.2558  -11.1944 C   0  0  0  0  0  0  0  0  0  0  0  0
   21.5357    0.4781  -11.6867 O   0  0  0  0  0  0  0  0  0  0  0  0
   19.4993    0.2051  -10.5780 O   0  0  0  0  0  0  0  0  0  0  0  0
  1  2  1  6
  2  3  1  0
  3  4  1  6
  4  5  1  1
  5  6  1  0
  6  7  2  0
  6  8  1  0
  8  9  1  0
  9 10  2  0
 10 11  1  0
 11 12  1  0
 11 13  2  0
 13 14  1  0
 14 15  1  0
 15 16  3  0
 14 17  2  0
  4 18  1  0
 18 19  2  0
 18 20  1  0
  2 20  1  6
 17  9  1  0
M  END
$$$$
