_rank10
     RDKit          3D

 26 28  0  0  0  0  0  0  0  0999 V2000
   28.6696    0.5070   -8.3480 C   0  0  0  0  0  0  0  0  0  0  0  0
   27.8849   -1.0295   -8.7071 S   0  0  1  0  0  6  0  0  0  0  0  0
   28.7838   -1.9364   -9.5156 O   0  0  0  0  0  0  0  0  0  0  0  0
   27.6263   -1.7481   -7.4068 O   0  0  0  0  0  0  0  0  0  0  0  0
   26.3959   -0.7225   -9.5498 C   0  0  0  0  0  0  0  0  0  0  0  0
   25.2081   -1.0797   -8.9507 C   0  0  0  0  0  0  0  0  0  0  0  0
   24.0509   -0.8215   -9.6447 C   0  0  0  0  0  0  0  0  0  0  0  0
   24.0611   -0.2172  -10.9176 C   0  0  0  0  0  0  0  0  0  0  0  0
   22.8576    0.0143  -11.5573 O   0  0  0  0  0  0  0  0  0  0  0  0
   21.6128   -0.3197  -11.1052 C   0  0  0  0  0  0  0  0  0  0  0  0
   21.2063   -1.6565  -11.2492 C   0  0  0  0  0  0  0  0  0  0  0  0
   19.9743   -2.0552  -10.8195 C   0  0  0  0  0  0  0  0  0  0  0  0
   19.5919   -3.3599  -10.9656 F   0  0  0  0  0  0  0  0  0  0  0  0
   19.0728   -1.1969  -10.2324 C   0  0  0  0  0  0  0  0  0  0  0  0
   19.4511    0.1181  -10.0819 C   0  0  0  0  0  0  0  0  0  0  0  0
   18.5406    1.0523   -9.4726 C   0  0  0  0  0  0  0  0  0  0  0  0
   17.8013    1.7868   -8.9738 N   0  0  0  0  0  0  0  0  0  0  0  0
   20.7111    0.5223  -10.5225 C   0  0  0  0  0  0  0  0  0  0  0  0
   25.2783    0.1143  -11.4615 C   0  0  0  0  0  0  0  0  0  0  0  0
   26.4573   -0.1284  -10.7950 C   0  0  0  0  0  0  0  0  0  0  0  0
   27.5705    0.3579  -11.6447 C   0  0  2  0  0  0  0  0  0  0  0  0
   27.8390    1.7058  -11.4370 O   0  0  0  0  0  0  0  0  0  0  0  0
   27.0039    0.2236  -13.0338 C   0  0  2  0  0  0  0  0  0  0  0  0
   27.6807    1.0494  -13.8961 F   0  0  0  0  0  0  0  0  0  0  0  0
   25.5735    0.7360  -12.7942 C   0  0  2  0  0  0  0  0  0  0  0  0
   25.5432    2.0884  -12.7217 F   0  0  0  0  0  0  0  0  0  0  0  0
  1  2  1  1
  2  3  2  0
  2  4  2  0
  2  5  1  6
  5  6  2  0
  6  7  1  0
  7  8  2  0
  8  9  1  0
  9 10  1  0
 10 11  2  0
 11 12  1  0
 12 13  1  0
 12 14  2  0
 14 15  1  0
 15 16  1  0
 16 17  3  0
 15 18  2  0
  8 19  1  0
 19 20  2  0
 20 21  1  0
 21 22  1  1
 21 23  1  0
 23 24  1  6
 23 25  1  0
 25 26  1  1
 20  5  1  0
 18 10  1  0
 25 19  1  0
M  END
$$$$
