_rank5
     RDKit          3D

 13 14  0  0  0  0  0  0  0  0999 V2000
   27.6170   -0.0588   -9.5079 H   0  0  0  0  0  0  0  0  0  0  0  0
   26.5451   -0.1806   -9.5128 C   0  0  0  0  0  0  0  0  0  0  0  0
   25.8197   -0.3359   -8.3416 C   0  0  0  0  0  0  0  0  0  0  0  0
   24.4507   -0.4922   -8.3357 C   0  0  0  0  0  0  0  0  0  0  0  0
   23.8178   -0.4883   -9.5617 C   0  0  0  0  0  0  0  0  0  0  0  0
   22.5294   -0.6141   -9.9038 N   0  0  0  0  0  0  0  0  0  0  0  0
   22.4405   -0.5441  -11.1954 O   0  0  0  0  0  0  0  0  0  0  0  0
   23.6259   -0.3757  -11.7302 N   0  0  0  0  0  0  0  0  0  0  0  0
   24.5371   -0.3333  -10.7387 C   0  0  0  0  0  0  0  0  0  0  0  0
   25.9067   -0.1776  -10.7337 C   0  0  0  0  0  0  0  0  0  0  0  0
   26.5831   -0.0242  -11.9737 N   0  0  0  0  0  4  0  0  0  0  0  0
   27.8025   -0.2145  -12.1265 O   0  0  0  0  0  0  0  0  0  0  0  0
   25.8741    0.3576  -13.0960 O   0  0  0  0  0  1  0  0  0  0  0  0
  1  2  1  0
  2  3  1  0
  3  4  2  0
  4  5  1  0
  5  6  2  0
  6  7  1  0
  7  8  1  0
  8  9  2  0
  9 10  1  0
 10 11  1  0
 11 12  2  0
 11 13  1  0
 10  2  2  0
  9  5  1  0
M  CHG  2  11   1  13  -1
M  ISO  1   1   3
M  END
$$$$
