_rank1
     RDKit          3D

 26 28  0  0  0  0  0  0  0  0999 V2000
   28.3527   -1.7002   -7.8858 C   0  0  0  0  0  0  0  0  0  0  0  0
   27.7419   -0.1107   -8.3398 S   0  0  1  0  0  6  0  0  0  0  0  0
   27.4666    0.7459   -7.1256 O   0  0  0  0  0  0  0  0  0  0  0  0
   28.8129    0.6058   -9.1231 O   0  0  0  0  0  0  0  0  0  0  0  0
   26.3043   -0.3079   -9.2970 C   0  0  0  0  0  0  0  0  0  0  0  0
   25.1981   -0.8925   -8.7208 C   0  0  0  0  0  0  0  0  0  0  0  0
   24.0793   -1.0315   -9.5060 C   0  0  0  0  0  0  0  0  0  0  0  0
   24.0482   -0.5996  -10.8470 C   0  0  0  0  0  0  0  0  0  0  0  0
   22.8868   -0.7701  -11.5772 O   0  0  0  0  0  0  0  0  0  0  0  0
   21.6075   -0.7375  -11.0999 C   0  0  0  0  0  0  0  0  0  0  0  0
   20.8189   -1.8865  -11.2759 C   0  0  0  0  0  0  0  0  0  0  0  0
   19.5322   -1.9186  -10.8235 C   0  0  0  0  0  0  0  0  0  0  0  0
   18.7761   -3.0440  -11.0013 F   0  0  0  0  0  0  0  0  0  0  0  0
   18.9380   -0.8558  -10.1821 C   0  0  0  0  0  0  0  0  0  0  0  0
   19.6932    0.2805   -9.9995 C   0  0  0  0  0  0  0  0  0  0  0  0
   19.1135    1.4176   -9.3332 C   0  0  0  0  0  0  0  0  0  0  0  0
   18.6664    2.3389   -8.7982 N   0  0  0  0  0  0  0  0  0  0  0  0
   21.0082    0.3100  -10.4634 C   0  0  0  0  0  0  0  0  0  0  0  0
   25.1844   -0.0255  -11.3633 C   0  0  0  0  0  0  0  0  0  0  0  0
   26.3226    0.1309  -10.6063 C   0  0  0  0  0  0  0  0  0  0  0  0
   27.3463    0.7900  -11.4520 C   0  0  2  0  0  0  0  0  0  0  0  0
   27.2440    2.1758  -11.4157 O   0  0  0  0  0  0  0  0  0  0  0  0
   26.9576    0.3491  -12.8388 C   0  0  2  0  0  0  0  0  0  0  0  0
   27.4759    1.2169  -13.7672 F   0  0  0  0  0  0  0  0  0  0  0  0
   25.4286    0.4911  -12.7502 C   0  0  2  0  0  0  0  0  0  0  0  0
   25.0493    1.7866  -12.8646 F   0  0  0  0  0  0  0  0  0  0  0  0
  1  2  1  1
  2  3  2  0
  2  4  2  0
  2  5  1  6
  5  6  2  0
  6  7  1  0
  7  8  2  0
  8  9  1  0
  9 10  1  0
 10 11  2  0
 11 12  1  0
 12 13  1  0
 12 14  2  0
 14 15  1  0
 15 16  1  0
 16 17  3  0
 15 18  2  0
  8 19  1  0
 19 20  2  0
 20 21  1  0
 21 22  1  6
 21 23  1  0
 23 24  1  6
 23 25  1  0
 25 26  1  1
 20  5  1  0
 18 10  1  0
 25 19  1  0
M  END
$$$$
