_rank9
     RDKit          3D

 13 14  0  0  0  0  0  0  0  0999 V2000
   26.2698   -0.2436   -9.2808 H   0  0  0  0  0  0  0  0  0  0  0  0
   25.2780   -0.4887   -9.6273 C   0  0  0  0  0  0  0  0  0  0  0  0
   24.2688   -0.8654   -8.7545 C   0  0  0  0  0  0  0  0  0  0  0  0
   22.9987   -1.1807   -9.1857 C   0  0  0  0  0  0  0  0  0  0  0  0
   22.7650   -1.1059  -10.5435 C   0  0  0  0  0  0  0  0  0  0  0  0
   21.6697   -1.3404  -11.2770 N   0  0  0  0  0  0  0  0  0  0  0  0
   21.9590   -1.1290  -12.5230 O   0  0  0  0  0  0  0  0  0  0  0  0
   23.2112   -0.7609  -12.6490 N   0  0  0  0  0  0  0  0  0  0  0  0
   23.7702   -0.7296  -11.4237 C   0  0  0  0  0  0  0  0  0  0  0  0
   25.0379   -0.4162  -10.9821 C   0  0  0  0  0  0  0  0  0  0  0  0
   26.0215   -0.0389  -11.9353 N   0  0  0  0  0  4  0  0  0  0  0  0
   27.1711    0.3294  -11.6368 O   0  0  0  0  0  0  0  0  0  0  0  0
   25.7158   -0.0723  -13.2820 O   0  0  0  0  0  1  0  0  0  0  0  0
  1  2  1  0
  2  3  1  0
  3  4  2  0
  4  5  1  0
  5  6  2  0
  6  7  1  0
  7  8  1  0
  8  9  2  0
  9 10  1  0
 10 11  1  0
 11 12  2  0
 11 13  1  0
 10  2  2  0
  9  5  1  0
M  CHG  2  11   1  13  -1
M  ISO  1   1   3
M  END
$$$$
