_rank14
     RDKit          3D

 26 28  0  0  0  0  0  0  0  0999 V2000
   27.6132   -1.2047   -7.2538 C   0  0  0  0  0  0  0  0  0  0  0  0
   27.8720   -0.4416   -8.8211 S   0  0  1  0  0  6  0  0  0  0  0  0
   28.5812    0.8857   -8.6820 O   0  0  0  0  0  0  0  0  0  0  0  0
   28.7872   -1.3217   -9.6346 O   0  0  0  0  0  0  0  0  0  0  0  0
   26.3386   -0.2438   -9.6156 C   0  0  0  0  0  0  0  0  0  0  0  0
   25.1859   -0.5073   -8.9090 C   0  0  0  0  0  0  0  0  0  0  0  0
   23.9920   -0.3395   -9.5678 C   0  0  0  0  0  0  0  0  0  0  0  0
   23.9316    0.0837  -10.9105 C   0  0  0  0  0  0  0  0  0  0  0  0
   22.6946    0.2328  -11.5093 O   0  0  0  0  0  0  0  0  0  0  0  0
   21.4908   -0.1829  -11.0158 C   0  0  0  0  0  0  0  0  0  0  0  0
   20.6729    0.7800  -10.4017 C   0  0  0  0  0  0  0  0  0  0  0  0
   19.4590    0.4299   -9.8868 C   0  0  0  0  0  0  0  0  0  0  0  0
   18.6730    1.3777   -9.2921 F   0  0  0  0  0  0  0  0  0  0  0  0
   18.9689   -0.8553   -9.9339 C   0  0  0  0  0  0  0  0  0  0  0  0
   19.7547   -1.8148  -10.5312 C   0  0  0  0  0  0  0  0  0  0  0  0
   19.2829   -3.1731  -10.6039 C   0  0  0  0  0  0  0  0  0  0  0  0
   18.9181   -4.2670  -10.6764 N   0  0  0  0  0  0  0  0  0  0  0  0
   20.9953   -1.4534  -11.0563 C   0  0  0  0  0  0  0  0  0  0  0  0
   25.1168    0.3292  -11.5605 C   0  0  0  0  0  0  0  0  0  0  0  0
   26.3308    0.1728  -10.9323 C   0  0  0  0  0  0  0  0  0  0  0  0
   27.3952    0.5302  -11.9003 C   0  0  2  0  0  0  0  0  0  0  0  0
   27.6733    1.8921  -11.8953 O   0  0  0  0  0  0  0  0  0  0  0  0
   26.7532    0.2097  -13.2246 C   0  0  2  0  0  0  0  0  0  0  0  0
   27.3808    0.9045  -14.2281 F   0  0  0  0  0  0  0  0  0  0  0  0
   25.3377    0.7596  -12.9803 C   0  0  2  0  0  0  0  0  0  0  0  0
   25.3099    2.1093  -13.0933 F   0  0  0  0  0  0  0  0  0  0  0  0
  1  2  1  1
  2  3  2  0
  2  4  2  0
  2  5  1  6
  5  6  2  0
  6  7  1  0
  7  8  2  0
  8  9  1  0
  9 10  1  0
 10 11  2  0
 11 12  1  0
 12 13  1  0
 12 14  2  0
 14 15  1  0
 15 16  1  0
 16 17  3  0
 15 18  2  0
  8 19  1  0
 19 20  2  0
 20 21  1  0
 21 22  1  6
 21 23  1  0
 23 24  1  6
 23 25  1  0
 25 26  1  1
 20  5  1  0
 18 10  1  0
 25 19  1  0
M  END
$$$$
