_rank20
     RDKit          3D

 13 14  0  0  0  0  0  0  0  0999 V2000
   24.5690   -0.6668   -8.7740 H   0  0  0  0  0  0  0  0  0  0  0  0
   23.7811   -0.9314   -9.4618 C   0  0  0  0  0  0  0  0  0  0  0  0
   22.5914   -1.4978   -9.0306 C   0  0  0  0  0  0  0  0  0  0  0  0
   21.5783   -1.8397   -9.8997 C   0  0  0  0  0  0  0  0  0  0  0  0
   21.7967   -1.5927  -11.2395 C   0  0  0  0  0  0  0  0  0  0  0  0
   21.0376   -1.8000  -12.3228 N   0  0  0  0  0  0  0  0  0  0  0  0
   21.6939   -1.3962  -13.3654 O   0  0  0  0  0  0  0  0  0  0  0  0
   22.8672   -0.9253  -13.0172 N   0  0  0  0  0  0  0  0  0  0  0  0
   22.9851   -1.0259  -11.6790 C   0  0  0  0  0  0  0  0  0  0  0  0
   23.9927   -0.6874  -10.8012 C   0  0  0  0  0  0  0  0  0  0  0  0
   25.1848   -0.1110  -11.3161 N   0  0  0  0  0  4  0  0  0  0  0  0
   25.5250    1.0690  -11.1207 O   0  0  0  0  0  0  0  0  0  0  0  0
   26.0391   -0.8793  -12.0830 O   0  0  0  0  0  1  0  0  0  0  0  0
  1  2  1  0
  2  3  1  0
  3  4  2  0
  4  5  1  0
  5  6  2  0
  6  7  1  0
  7  8  1  0
  8  9  2  0
  9 10  1  0
 10 11  1  0
 11 12  2  0
 11 13  1  0
 10  2  2  0
  9  5  1  0
M  CHG  2  11   1  13  -1
M  ISO  1   1   3
M  END
$$$$
