_rank19
     RDKit          3D

 13 14  0  0  0  0  0  0  0  0999 V2000
   23.4257   -2.1562  -10.6094 H   0  0  0  0  0  0  0  0  0  0  0  0
   22.5589   -1.5795  -10.3268 C   0  0  0  0  0  0  0  0  0  0  0  0
   22.3027   -1.2400   -9.0073 C   0  0  0  0  0  0  0  0  0  0  0  0
   21.1991   -0.5039   -8.6347 C   0  0  0  0  0  0  0  0  0  0  0  0
   20.3432   -0.1104   -9.6428 C   0  0  0  0  0  0  0  0  0  0  0  0
   19.2066    0.5973   -9.6261 N   0  0  0  0  0  0  0  0  0  0  0  0
   18.7716    0.7010  -10.8430 O   0  0  0  0  0  0  0  0  0  0  0  0
   19.5782    0.0866  -11.6745 N   0  0  0  0  0  0  0  0  0  0  0  0
   20.5928   -0.4463  -10.9663 C   0  0  0  0  0  0  0  0  0  0  0  0
   21.7000   -1.1833  -11.3286 C   0  0  0  0  0  0  0  0  0  0  0  0
   21.8970   -1.4939  -12.7009 N   0  0  0  0  0  4  0  0  0  0  0  0
   23.0105   -1.5159  -13.2539 O   0  0  0  0  0  0  0  0  0  0  0  0
   20.8084   -1.7943  -13.4964 O   0  0  0  0  0  1  0  0  0  0  0  0
  1  2  1  0
  2  3  1  0
  3  4  2  0
  4  5  1  0
  5  6  2  0
  6  7  1  0
  7  8  1  0
  8  9  2  0
  9 10  1  0
 10 11  1  0
 11 12  2  0
 11 13  1  0
 10  2  2  0
  9  5  1  0
M  CHG  2  11   1  13  -1
M  ISO  1   1   3
M  END
$$$$
