_rank4
     RDKit          3D

 26 28  0  0  0  0  0  0  0  0999 V2000
   28.5354    0.6531   -8.5843 C   0  0  0  0  0  0  0  0  0  0  0  0
   27.6859   -0.8778   -8.7852 S   0  0  1  0  0  6  0  0  0  0  0  0
   28.5227   -1.8818   -9.5439 O   0  0  0  0  0  0  0  0  0  0  0  0
   27.4508   -1.4752   -7.4207 O   0  0  0  0  0  0  0  0  0  0  0  0
   26.1782   -0.5870   -9.6000 C   0  0  0  0  0  0  0  0  0  0  0  0
   25.0024   -0.8861   -8.9477 C   0  0  0  0  0  0  0  0  0  0  0  0
   23.8299   -0.6426   -9.6210 C   0  0  0  0  0  0  0  0  0  0  0  0
   23.8132   -0.1096  -10.9253 C   0  0  0  0  0  0  0  0  0  0  0  0
   22.5955    0.1111  -11.5416 O   0  0  0  0  0  0  0  0  0  0  0  0
   21.3608   -0.2073  -11.0521 C   0  0  0  0  0  0  0  0  0  0  0  0
   20.6289    0.8127  -10.4220 C   0  0  0  0  0  0  0  0  0  0  0  0
   19.3896    0.5602   -9.9103 C   0  0  0  0  0  0  0  0  0  0  0  0
   18.6882    1.5627   -9.2998 F   0  0  0  0  0  0  0  0  0  0  0  0
   18.7910   -0.6774   -9.9760 C   0  0  0  0  0  0  0  0  0  0  0  0
   19.4914   -1.6914  -10.5893 C   0  0  0  0  0  0  0  0  0  0  0  0
   18.9047   -3.0030  -10.6817 C   0  0  0  0  0  0  0  0  0  0  0  0
   18.4162   -4.0471  -10.7606 N   0  0  0  0  0  0  0  0  0  0  0  0
   20.7581   -1.4299  -11.1111 C   0  0  0  0  0  0  0  0  0  0  0  0
   25.0195    0.1663  -11.5219 C   0  0  0  0  0  0  0  0  0  0  0  0
   26.2132   -0.0637  -10.8776 C   0  0  0  0  0  0  0  0  0  0  0  0
   27.3093    0.3520  -11.7850 C   0  0  2  0  0  0  0  0  0  0  0  0
   27.6095    1.7036  -11.6605 O   0  0  0  0  0  0  0  0  0  0  0  0
   26.6986    0.1533  -13.1474 C   0  0  2  0  0  0  0  0  0  0  0  0
   27.3646    0.9163  -14.0736 F   0  0  0  0  0  0  0  0  0  0  0  0
   25.2861    0.7075  -12.8952 C   0  0  2  0  0  0  0  0  0  0  0  0
   25.2836    2.0622  -12.8972 F   0  0  0  0  0  0  0  0  0  0  0  0
  1  2  1  1
  2  3  2  0
  2  4  2  0
  2  5  1  6
  5  6  2  0
  6  7  1  0
  7  8  2  0
  8  9  1  0
  9 10  1  0
 10 11  2  0
 11 12  1  0
 12 13  1  0
 12 14  2  0
 14 15  1  0
 15 16  1  0
 16 17  3  0
 15 18  2  0
  8 19  1  0
 19 20  2  0
 20 21  1  0
 21 22  1  1
 21 23  1  0
 23 24  1  6
 23 25  1  0
 25 26  1  1
 20  5  1  0
 18 10  1  0
 25 19  1  0
M  END
$$$$
