_rank1
     RDKit          3D

 13 14  0  0  0  0  0  0  0  0999 V2000
   27.5896   -0.2023   -9.3246 H   0  0  0  0  0  0  0  0  0  0  0  0
   26.5194   -0.2779   -9.4374 C   0  0  0  0  0  0  0  0  0  0  0  0
   25.6817   -0.4954   -8.3543 C   0  0  0  0  0  0  0  0  0  0  0  0
   24.3137   -0.5938   -8.4863 C   0  0  0  0  0  0  0  0  0  0  0  0
   23.7998   -0.4653   -9.7603 C   0  0  0  0  0  0  0  0  0  0  0  0
   22.5458   -0.5088  -10.2278 N   0  0  0  0  0  0  0  0  0  0  0  0
   22.5817   -0.3322  -11.5117 O   0  0  0  0  0  0  0  0  0  0  0  0
   23.8174   -0.1720  -11.9202 N   0  0  0  0  0  0  0  0  0  0  0  0
   24.6318   -0.2474  -10.8498 C   0  0  0  0  0  0  0  0  0  0  0  0
   25.9995   -0.1506  -10.7070 C   0  0  0  0  0  0  0  0  0  0  0  0
   26.7948    0.0726  -11.8629 N   0  0  0  0  0  4  0  0  0  0  0  0
   27.9974    0.3869  -11.8270 O   0  0  0  0  0  0  0  0  0  0  0  0
   26.2299   -0.0594  -13.1166 O   0  0  0  0  0  1  0  0  0  0  0  0
  1  2  1  0
  2  3  1  0
  3  4  2  0
  4  5  1  0
  5  6  2  0
  6  7  1  0
  7  8  1  0
  8  9  2  0
  9 10  1  0
 10 11  1  0
 11 12  2  0
 11 13  1  0
 10  2  2  0
  9  5  1  0
M  CHG  2  11   1  13  -1
M  ISO  1   1   3
M  END
$$$$
