_rank7
     RDKit          3D

 26 28  0  0  0  0  0  0  0  0999 V2000
   28.0705    0.7122   -7.7759 C   0  0  0  0  0  0  0  0  0  0  0  0
   27.7331   -0.6455   -8.8476 S   0  0  1  0  0  6  0  0  0  0  0  0
   28.8437   -0.8491   -9.8522 O   0  0  0  0  0  0  0  0  0  0  0  0
   27.6817   -1.9049   -8.0198 O   0  0  0  0  0  0  0  0  0  0  0  0
   26.2155   -0.3712   -9.6497 C   0  0  0  0  0  0  0  0  0  0  0  0
   25.0475   -0.5862   -8.9520 C   0  0  0  0  0  0  0  0  0  0  0  0
   23.8668   -0.3586   -9.6166 C   0  0  0  0  0  0  0  0  0  0  0  0
   23.8345    0.0766  -10.9565 C   0  0  0  0  0  0  0  0  0  0  0  0
   22.6094    0.2871  -11.5615 O   0  0  0  0  0  0  0  0  0  0  0  0
   21.3844   -0.0732  -11.0767 C   0  0  0  0  0  0  0  0  0  0  0  0
   20.6032    0.9280  -10.4763 C   0  0  0  0  0  0  0  0  0  0  0  0
   19.3706    0.6338   -9.9707 C   0  0  0  0  0  0  0  0  0  0  0  0
   18.6208    1.6185   -9.3894 F   0  0  0  0  0  0  0  0  0  0  0  0
   18.8261   -0.6294  -10.0145 C   0  0  0  0  0  0  0  0  0  0  0  0
   19.5753   -1.6256  -10.5984 C   0  0  0  0  0  0  0  0  0  0  0  0
   19.0461   -2.9629  -10.6671 C   0  0  0  0  0  0  0  0  0  0  0  0
   18.6064   -4.0305  -10.7098 N   0  0  0  0  0  0  0  0  0  0  0  0
   20.8350   -1.3215  -11.1140 C   0  0  0  0  0  0  0  0  0  0  0  0
   25.0338    0.2716  -11.5975 C   0  0  0  0  0  0  0  0  0  0  0  0
   26.2353    0.0547  -10.9633 C   0  0  0  0  0  0  0  0  0  0  0  0
   27.3211    0.3693  -11.9223 C   0  0  2  0  0  0  0  0  0  0  0  0
   27.6619    1.7169  -11.9055 O   0  0  0  0  0  0  0  0  0  0  0  0
   26.6734    0.0884  -13.2527 C   0  0  2  0  0  0  0  0  0  0  0  0
   27.3387    0.7606  -14.2473 F   0  0  0  0  0  0  0  0  0  0  0  0
   25.2833    0.7014  -13.0127 C   0  0  2  0  0  0  0  0  0  0  0  0
   25.3187    2.0517  -13.1159 F   0  0  0  0  0  0  0  0  0  0  0  0
  1  2  1  1
  2  3  2  0
  2  4  2  0
  2  5  1  6
  5  6  2  0
  6  7  1  0
  7  8  2  0
  8  9  1  0
  9 10  1  0
 10 11  2  0
 11 12  1  0
 12 13  1  0
 12 14  2  0
 14 15  1  0
 15 16  1  0
 16 17  3  0
 15 18  2  0
  8 19  1  0
 19 20  2  0
 20 21  1  0
 21 22  1  6
 21 23  1  0
 23 24  1  6
 23 25  1  0
 25 26  1  1
 20  5  1  0
 18 10  1  0
 25 19  1  0
M  END
$$$$
