_rank15
     RDKit          3D

 26 28  0  0  0  0  0  0  0  0999 V2000
   28.7527    0.6059   -8.1120 C   0  0  0  0  0  0  0  0  0  0  0  0
   27.9548   -0.9204   -8.4854 S   0  0  1  0  0  6  0  0  0  0  0  0
   28.8470   -1.8286   -9.2997 O   0  0  0  0  0  0  0  0  0  0  0  0
   27.6869   -1.6474   -7.1917 O   0  0  0  0  0  0  0  0  0  0  0  0
   26.4704   -0.5928   -9.3285 C   0  0  0  0  0  0  0  0  0  0  0  0
   25.2758   -0.8022   -8.6755 C   0  0  0  0  0  0  0  0  0  0  0  0
   24.1226   -0.5320   -9.3716 C   0  0  0  0  0  0  0  0  0  0  0  0
   24.1433   -0.0599  -10.6991 C   0  0  0  0  0  0  0  0  0  0  0  0
   22.9434    0.1925  -11.3376 O   0  0  0  0  0  0  0  0  0  0  0  0
   21.7017   -0.2099  -10.9354 C   0  0  0  0  0  0  0  0  0  0  0  0
   21.3667   -1.5620  -11.1164 C   0  0  0  0  0  0  0  0  0  0  0  0
   20.1417   -2.0280  -10.7373 C   0  0  0  0  0  0  0  0  0  0  0  0
   19.8292   -3.3467  -10.9191 F   0  0  0  0  0  0  0  0  0  0  0  0
   19.1794   -1.2256  -10.1679 C   0  0  0  0  0  0  0  0  0  0  0  0
   19.4871    0.1032   -9.9818 C   0  0  0  0  0  0  0  0  0  0  0  0
   18.5114    0.9805   -9.3892 C   0  0  0  0  0  0  0  0  0  0  0  0
   17.7185    1.6852   -8.9313 N   0  0  0  0  0  0  0  0  0  0  0  0
   20.7402    0.5763  -10.3707 C   0  0  0  0  0  0  0  0  0  0  0  0
   25.3668    0.1275  -11.2951 C   0  0  0  0  0  0  0  0  0  0  0  0
   26.5422   -0.1317  -10.6284 C   0  0  0  0  0  0  0  0  0  0  0  0
   27.6652    0.1863  -11.5424 C   0  0  2  0  0  0  0  0  0  0  0  0
   28.0320    1.5255  -11.4768 O   0  0  0  0  0  0  0  0  0  0  0  0
   27.0564   -0.0447  -12.9005 C   0  0  2  0  0  0  0  0  0  0  0  0
   27.7675    0.6404  -13.8537 F   0  0  0  0  0  0  0  0  0  0  0  0
   25.6716    0.5904  -12.6888 C   0  0  2  0  0  0  0  0  0  0  0  0
   25.7373    1.9421  -12.7530 F   0  0  0  0  0  0  0  0  0  0  0  0
  1  2  1  1
  2  3  2  0
  2  4  2  0
  2  5  1  6
  5  6  2  0
  6  7  1  0
  7  8  2  0
  8  9  1  0
  9 10  1  0
 10 11  2  0
 11 12  1  0
 12 13  1  0
 12 14  2  0
 14 15  1  0
 15 16  1  0
 16 17  3  0
 15 18  2  0
  8 19  1  0
 19 20  2  0
 20 21  1  0
 21 22  1  6
 21 23  1  0
 23 24  1  6
 23 25  1  0
 25 26  1  1
 20  5  1  0
 18 10  1  0
 25 19  1  0
M  END
$$$$
