_rank14
     RDKit          3D

 13 14  0  0  0  0  0  0  0  0999 V2000
   25.7912   -0.3364   -9.0584 H   0  0  0  0  0  0  0  0  0  0  0  0
   24.8441   -0.5445   -9.5310 C   0  0  0  0  0  0  0  0  0  0  0  0
   23.7329   -0.9409   -8.8028 C   0  0  0  0  0  0  0  0  0  0  0  0
   22.5184   -1.2093   -9.3956 C   0  0  0  0  0  0  0  0  0  0  0  0
   22.4487   -1.0660  -10.7661 C   0  0  0  0  0  0  0  0  0  0  0  0
   21.4447   -1.2431  -11.6342 N   0  0  0  0  0  0  0  0  0  0  0  0
   21.8830   -0.9793  -12.8255 O   0  0  0  0  0  0  0  0  0  0  0  0
   23.1467   -0.6315  -12.7849 N   0  0  0  0  0  0  0  0  0  0  0  0
   23.5567   -0.6695  -11.5021 C   0  0  0  0  0  0  0  0  0  0  0  0
   24.7675   -0.4033  -10.8994 C   0  0  0  0  0  0  0  0  0  0  0  0
   25.8628   -0.0020  -11.7104 N   0  0  0  0  0  4  0  0  0  0  0  0
   26.5456    1.0156  -11.4993 O   0  0  0  0  0  0  0  0  0  0  0  0
   26.2173   -0.7651  -12.8060 O   0  0  0  0  0  1  0  0  0  0  0  0
  1  2  1  0
  2  3  1  0
  3  4  2  0
  4  5  1  0
  5  6  2  0
  6  7  1  0
  7  8  1  0
  8  9  2  0
  9 10  1  0
 10 11  1  0
 11 12  2  0
 11 13  1  0
 10  2  2  0
  9  5  1  0
M  CHG  2  11   1  13  -1
M  ISO  1   1   3
M  END
$$$$
