_rank6
     RDKit          3D

 26 28  0  0  0  0  0  0  0  0999 V2000
   28.8518    0.7128   -8.5220 C   0  0  0  0  0  0  0  0  0  0  0  0
   27.8479   -0.7180   -8.2968 S   0  0  1  0  0  6  0  0  0  0  0  0
   28.5791   -1.9781   -8.6985 O   0  0  0  0  0  0  0  0  0  0  0  0
   27.5446   -0.8610   -6.8266 O   0  0  0  0  0  0  0  0  0  0  0  0
   26.3832   -0.5330   -9.2144 C   0  0  0  0  0  0  0  0  0  0  0  0
   25.1783   -0.8016   -8.6031 C   0  0  0  0  0  0  0  0  0  0  0  0
   24.0412   -0.6439   -9.3577 C   0  0  0  0  0  0  0  0  0  0  0  0
   24.0878   -0.2259  -10.7026 C   0  0  0  0  0  0  0  0  0  0  0  0
   22.9027   -0.0870  -11.4008 O   0  0  0  0  0  0  0  0  0  0  0  0
   21.6477   -0.3822  -10.9501 C   0  0  0  0  0  0  0  0  0  0  0  0
   21.1540   -1.6730  -11.2015 C   0  0  0  0  0  0  0  0  0  0  0  0
   19.9071   -2.0313  -10.7791 C   0  0  0  0  0  0  0  0  0  0  0  0
   19.4395   -3.2915  -11.0305 F   0  0  0  0  0  0  0  0  0  0  0  0
   19.0733   -1.1747  -10.0972 C   0  0  0  0  0  0  0  0  0  0  0  0
   19.5376    0.0955   -9.8405 C   0  0  0  0  0  0  0  0  0  0  0  0
   18.7001    1.0262   -9.1295 C   0  0  0  0  0  0  0  0  0  0  0  0
   18.0159    1.7741   -8.5750 N   0  0  0  0  0  0  0  0  0  0  0  0
   20.8126    0.4586  -10.2739 C   0  0  0  0  0  0  0  0  0  0  0  0
   25.3204    0.0251  -11.2548 C   0  0  0  0  0  0  0  0  0  0  0  0
   26.4801   -0.1211  -10.5291 C   0  0  0  0  0  0  0  0  0  0  0  0
   27.6176    0.2398  -11.4086 C   0  0  2  0  0  0  0  0  0  0  0  0
   27.8859    1.6035  -11.3865 O   0  0  0  0  0  0  0  0  0  0  0  0
   27.0878   -0.0896  -12.7795 C   0  0  2  0  0  0  0  0  0  0  0  0
   27.7907    0.6057  -13.7313 F   0  0  0  0  0  0  0  0  0  0  0  0
   25.6536    0.4518  -12.6535 C   0  0  2  0  0  0  0  0  0  0  0  0
   25.6268    1.8009  -12.7740 F   0  0  0  0  0  0  0  0  0  0  0  0
  1  2  1  1
  2  3  2  0
  2  4  2  0
  2  5  1  6
  5  6  2  0
  6  7  1  0
  7  8  2  0
  8  9  1  0
  9 10  1  0
 10 11  2  0
 11 12  1  0
 12 13  1  0
 12 14  2  0
 14 15  1  0
 15 16  1  0
 16 17  3  0
 15 18  2  0
  8 19  1  0
 19 20  2  0
 20 21  1  0
 21 22  1  6
 21 23  1  0
 23 24  1  6
 23 25  1  0
 25 26  1  1
 20  5  1  0
 18 10  1  0
 25 19  1  0
M  END
$$$$
