_rank12
     RDKit          3D

 13 14  0  0  0  0  0  0  0  0999 V2000
   21.9685   -1.8041   -9.6535 H   0  0  0  0  0  0  0  0  0  0  0  0
   22.9111   -1.3366   -9.8915 C   0  0  0  0  0  0  0  0  0  0  0  0
   23.8611   -1.0655   -8.9189 C   0  0  0  0  0  0  0  0  0  0  0  0
   25.0682   -0.4688   -9.2111 C   0  0  0  0  0  0  0  0  0  0  0  0
   25.2999   -0.1455  -10.5323 C   0  0  0  0  0  0  0  0  0  0  0  0
   26.3435    0.4296  -11.1429 N   0  0  0  0  0  0  0  0  0  0  0  0
   26.0786    0.5182  -12.4090 O   0  0  0  0  0  0  0  0  0  0  0  0
   24.8927    0.0219  -12.6672 N   0  0  0  0  0  0  0  0  0  0  0  0
   24.3537   -0.4137  -11.5119 C   0  0  0  0  0  0  0  0  0  0  0  0
   23.1489   -1.0111  -11.2090 C   0  0  0  0  0  0  0  0  0  0  0  0
   22.2236   -1.2577  -12.2586 N   0  0  0  0  0  4  0  0  0  0  0  0
   20.9892   -1.1905  -12.1247 O   0  0  0  0  0  0  0  0  0  0  0  0
   22.6893   -1.5938  -13.5149 O   0  0  0  0  0  1  0  0  0  0  0  0
  1  2  1  0
  2  3  1  0
  3  4  2  0
  4  5  1  0
  5  6  2  0
  6  7  1  0
  7  8  1  0
  8  9  2  0
  9 10  1  0
 10 11  1  0
 11 12  2  0
 11 13  1  0
 10  2  2  0
  9  5  1  0
M  CHG  2  11   1  13  -1
M  ISO  1   1   3
M  END
$$$$
