_rank5
     RDKit          3D

 16 16  0  0  0  0  0  0  0  0999 V2000
   26.3668    0.5082  -13.6147 C   0  0  0  0  0  0  0  0  0  0  0  0
   26.5408    0.8513  -11.8290 S   0  0  0  0  0  0  0  0  0  0  0  0
   25.2564    0.1090  -10.8809 C   0  0  0  0  0  0  0  0  0  0  0  0
   23.9960   -0.0353  -11.4512 C   0  0  0  0  0  0  0  0  0  0  0  0
   22.9725   -0.6044  -10.7551 C   0  0  0  0  0  0  0  0  0  0  0  0
   21.6055   -0.7867  -11.3077 C   0  0  1  0  0  0  0  0  0  0  0  0
   21.5194   -1.9735  -12.1021 N   0  0  0  0  0  0  0  0  0  0  0  0
   20.6323   -0.8962  -10.2166 C   0  0  0  0  0  0  0  0  0  0  0  0
   19.8803   -1.0000   -9.3622 N   0  0  0  0  0  0  0  0  0  0  0  0
   23.2205   -1.0348   -9.4661 C   0  0  0  0  0  0  0  0  0  0  0  0
   24.4749   -0.8862   -8.9115 C   0  0  0  0  0  0  0  0  0  0  0  0
   25.5270   -0.3127   -9.5974 C   0  0  0  0  0  0  0  0  0  0  0  0
   27.0726   -0.1601   -8.8416 S   0  0  1  0  0  6  0  0  0  0  0  0
   27.4916    1.4748   -8.3871 C   0  0  0  0  0  0  0  0  0  0  0  0
   27.1074   -1.0208   -7.5988 O   0  0  0  0  0  0  0  0  0  0  0  0
   28.1688   -0.6883   -9.7381 O   0  0  0  0  0  0  0  0  0  0  0  0
  1  2  1  1
  2  3  1  0
  3  4  2  0
  4  5  1  0
  5  6  1  0
  6  7  1  1
  6  8  1  0
  8  9  3  0
  5 10  2  0
 10 11  1  0
 11 12  2  0
 13 12  1  6
 14 13  1  1
 13 15  2  0
 13 16  2  0
 12  3  1  0
M  END
$$$$
