_rank15
     RDKit          3D

 16 16  0  0  0  0  0  0  0  0999 V2000
   23.4843    3.5340  -10.4445 C   0  0  0  0  0  0  0  0  0  0  0  0
   24.7934    2.2708  -10.2797 S   0  0  0  0  0  0  0  0  0  0  0  0
   24.1457    0.6339  -10.3087 C   0  0  0  0  0  0  0  0  0  0  0  0
   22.8356    0.4358  -10.7318 C   0  0  0  0  0  0  0  0  0  0  0  0
   22.2929   -0.8132  -10.7713 C   0  0  0  0  0  0  0  0  0  0  0  0
   20.9016   -1.0900  -11.2129 C   0  0  1  0  0  0  0  0  0  0  0  0
   20.8678   -1.5540  -12.5659 N   0  0  0  0  0  0  0  0  0  0  0  0
   20.2994   -2.1208  -10.3618 C   0  0  0  0  0  0  0  0  0  0  0  0
   19.8119   -2.9168   -9.7022 N   0  0  0  0  0  0  0  0  0  0  0  0
   23.0798   -1.8788  -10.3793 C   0  0  0  0  0  0  0  0  0  0  0  0
   24.3778   -1.6694   -9.9616 C   0  0  0  0  0  0  0  0  0  0  0  0
   24.9490   -0.4133   -9.9133 C   0  0  0  0  0  0  0  0  0  0  0  0
   26.5815   -0.2245   -9.3816 S   0  0  1  0  0  6  0  0  0  0  0  0
   26.7526    0.6772   -7.8941 C   0  0  0  0  0  0  0  0  0  0  0  0
   27.2022   -1.5889   -9.1823 O   0  0  0  0  0  0  0  0  0  0  0  0
   27.4200    0.4581  -10.4376 O   0  0  0  0  0  0  0  0  0  0  0  0
  1  2  1  1
  2  3  1  0
  3  4  2  0
  4  5  1  0
  5  6  1  0
  6  7  1  6
  6  8  1  0
  8  9  3  0
  5 10  2  0
 10 11  1  0
 11 12  2  0
 13 12  1  6
 14 13  1  1
 13 15  2  0
 13 16  2  0
 12  3  1  0
M  END
$$$$
