_rank11
     RDKit          3D

 16 16  0  0  0  0  0  0  0  0999 V2000
   26.5040    0.8313  -13.4095 C   0  0  0  0  0  0  0  0  0  0  0  0
   26.9695    0.3073  -11.7227 S   0  0  0  0  0  0  0  0  0  0  0  0
   25.5669   -0.1193  -10.7479 C   0  0  0  0  0  0  0  0  0  0  0  0
   24.3221   -0.2086  -11.3621 C   0  0  0  0  0  0  0  0  0  0  0  0
   23.2096   -0.5363  -10.6474 C   0  0  0  0  0  0  0  0  0  0  0  0
   21.8537   -0.6477  -11.2445 C   0  0  1  0  0  0  0  0  0  0  0  0
   21.9238   -0.9216  -12.6471 N   0  0  0  0  0  0  0  0  0  0  0  0
   21.1096   -1.7363  -10.6036 C   0  0  0  0  0  0  0  0  0  0  0  0
   20.5230   -2.5907  -10.1218 N   0  0  0  0  0  0  0  0  0  0  0  0
   23.3511   -0.7778   -9.2947 C   0  0  0  0  0  0  0  0  0  0  0  0
   24.5911   -0.6861   -8.6970 C   0  0  0  0  0  0  0  0  0  0  0  0
   25.7322   -0.3558   -9.4006 C   0  0  0  0  0  0  0  0  0  0  0  0
   27.2534   -0.2610   -8.5879 S   0  0  1  0  0  6  0  0  0  0  0  0
   28.3537   -1.5646   -8.9689 C   0  0  0  0  0  0  0  0  0  0  0  0
   27.9271    1.0458   -8.9412 O   0  0  0  0  0  0  0  0  0  0  0  0
   27.0661   -0.2346   -7.0884 O   0  0  0  0  0  0  0  0  0  0  0  0
  1  2  1  1
  2  3  1  0
  3  4  2  0
  4  5  1  0
  5  6  1  0
  6  7  1  6
  6  8  1  0
  8  9  3  0
  5 10  2  0
 10 11  1  0
 11 12  2  0
 13 12  1  6
 14 13  1  1
 13 15  2  0
 13 16  2  0
 12  3  1  0
M  END
$$$$
