_rank7
     RDKit          3D

 16 16  0  0  0  0  0  0  0  0999 V2000
   26.1073    1.2286  -13.6480 C   0  0  0  0  0  0  0  0  0  0  0  0
   26.6661    0.5320  -12.0546 S   0  0  0  0  0  0  0  0  0  0  0  0
   25.3185    0.0278  -11.0399 C   0  0  0  0  0  0  0  0  0  0  0  0
   24.0557   -0.0949  -11.6100 C   0  0  0  0  0  0  0  0  0  0  0  0
   22.9842   -0.4827  -10.8633 C   0  0  0  0  0  0  0  0  0  0  0  0
   21.6119   -0.6322  -11.4128 C   0  0  1  0  0  0  0  0  0  0  0  0
   21.3309   -1.9946  -11.7472 N   0  0  0  0  0  0  0  0  0  0  0  0
   20.6233   -0.1917  -10.4237 C   0  0  0  0  0  0  0  0  0  0  0  0
   19.8666    0.1629   -9.6440 N   0  0  0  0  0  0  0  0  0  0  0  0
   23.1858   -0.7512   -9.5234 C   0  0  0  0  0  0  0  0  0  0  0  0
   24.4432   -0.6259   -8.9697 C   0  0  0  0  0  0  0  0  0  0  0  0
   25.5435   -0.2346   -9.7062 C   0  0  0  0  0  0  0  0  0  0  0  0
   27.0896   -0.1005   -8.9480 S   0  0  1  0  0  6  0  0  0  0  0  0
   28.3727   -0.9487   -9.7782 C   0  0  0  0  0  0  0  0  0  0  0  0
   27.4725    1.3591   -8.8504 O   0  0  0  0  0  0  0  0  0  0  0  0
   27.0416   -0.6087   -7.5254 O   0  0  0  0  0  0  0  0  0  0  0  0
  1  2  1  1
  2  3  1  0
  3  4  2  0
  4  5  1  0
  5  6  1  0
  6  7  1  1
  6  8  1  0
  8  9  3  0
  5 10  2  0
 10 11  1  0
 11 12  2  0
 13 12  1  6
 14 13  1  1
 13 15  2  0
 13 16  2  0
 12  3  1  0
M  END
$$$$
