_rank4
     RDKit          3D

 16 16  0  0  0  0  0  0  0  0999 V2000
   26.3686    0.6586  -13.5567 C   0  0  0  0  0  0  0  0  0  0  0  0
   26.7243    0.5769  -11.7669 S   0  0  0  0  0  0  0  0  0  0  0  0
   25.3407    0.0075  -10.8390 C   0  0  0  0  0  0  0  0  0  0  0  0
   24.1013   -0.0807  -11.4640 C   0  0  0  0  0  0  0  0  0  0  0  0
   23.0033   -0.5166  -10.7854 C   0  0  0  0  0  0  0  0  0  0  0  0
   21.6538   -0.6330  -11.3959 C   0  0  1  0  0  0  0  0  0  0  0  0
   21.5635   -1.7823  -12.2433 N   0  0  0  0  0  0  0  0  0  0  0  0
   20.6365   -0.7579  -10.3475 C   0  0  0  0  0  0  0  0  0  0  0  0
   19.8549   -0.8443   -9.5180 N   0  0  0  0  0  0  0  0  0  0  0  0
   23.1543   -0.8690   -9.4583 C   0  0  0  0  0  0  0  0  0  0  0  0
   24.3888   -0.7771   -8.8495 C   0  0  0  0  0  0  0  0  0  0  0  0
   25.5152   -0.3384   -9.5167 C   0  0  0  0  0  0  0  0  0  0  0  0
   27.0304   -0.2502   -8.6923 S   0  0  1  0  0  6  0  0  0  0  0  0
   27.7730    1.3318   -8.7215 C   0  0  0  0  0  0  0  0  0  0  0  0
   26.8372   -0.6561   -7.2485 O   0  0  0  0  0  0  0  0  0  0  0  0
   28.0190   -1.2380   -9.2680 O   0  0  0  0  0  0  0  0  0  0  0  0
  1  2  1  1
  2  3  1  0
  3  4  2  0
  4  5  1  0
  5  6  1  0
  6  7  1  6
  6  8  1  0
  8  9  3  0
  5 10  2  0
 10 11  1  0
 11 12  2  0
 13 12  1  6
 14 13  1  1
 13 15  2  0
 13 16  2  0
 12  3  1  0
M  END
$$$$
