_rank2
     RDKit          3D

 16 16  0  0  0  0  0  0  0  0999 V2000
   26.3671    0.0469  -13.6698 C   0  0  0  0  0  0  0  0  0  0  0  0
   26.8015    0.0322  -11.8956 S   0  0  0  0  0  0  0  0  0  0  0  0
   25.3989   -0.2503  -10.8697 C   0  0  0  0  0  0  0  0  0  0  0  0
   24.1419   -0.3411  -11.4581 C   0  0  0  0  0  0  0  0  0  0  0  0
   23.0288   -0.5596  -10.7035 C   0  0  0  0  0  0  0  0  0  0  0  0
   21.6601   -0.6664  -11.2716 C   0  0  1  0  0  0  0  0  0  0  0  0
   21.2931   -2.0317  -11.4915 N   0  0  0  0  0  0  0  0  0  0  0  0
   20.6854   -0.0745  -10.3500 C   0  0  0  0  0  0  0  0  0  0  0  0
   19.9114    0.3848   -9.6455 N   0  0  0  0  0  0  0  0  0  0  0  0
   23.1824   -0.6887   -9.3368 C   0  0  0  0  0  0  0  0  0  0  0  0
   24.4345   -0.5968   -8.7651 C   0  0  0  0  0  0  0  0  0  0  0  0
   25.5764   -0.3759   -9.5091 C   0  0  0  0  0  0  0  0  0  0  0  0
   27.1130   -0.2738   -8.7270 S   0  0  1  0  0  6  0  0  0  0  0  0
   27.4723    1.2978   -8.0517 C   0  0  0  0  0  0  0  0  0  0  0  0
   27.1741   -1.2935   -7.6122 O   0  0  0  0  0  0  0  0  0  0  0  0
   28.2303   -0.6371   -9.6779 O   0  0  0  0  0  0  0  0  0  0  0  0
  1  2  1  1
  2  3  1  0
  3  4  2  0
  4  5  1  0
  5  6  1  0
  6  7  1  1
  6  8  1  0
  8  9  3  0
  5 10  2  0
 10 11  1  0
 11 12  2  0
 13 12  1  6
 14 13  1  1
 13 15  2  0
 13 16  2  0
 12  3  1  0
M  END
$$$$
