_rank1
     RDKit          3D

 16 16  0  0  0  0  0  0  0  0999 V2000
   26.0419    0.8268  -13.4500 C   0  0  0  0  0  0  0  0  0  0  0  0
   26.5812    0.3158  -11.7813 S   0  0  0  0  0  0  0  0  0  0  0  0
   25.2312   -0.1953  -10.7733 C   0  0  0  0  0  0  0  0  0  0  0  0
   23.9689   -0.3094  -11.3461 C   0  0  0  0  0  0  0  0  0  0  0  0
   22.8955   -0.7021  -10.6046 C   0  0  0  0  0  0  0  0  0  0  0  0
   21.5236   -0.8430  -11.1572 C   0  0  1  0  0  0  0  0  0  0  0  0
   21.0024   -2.1555  -10.9275 N   0  0  0  0  0  0  0  0  0  0  0  0
   20.6233    0.1234  -10.5207 C   0  0  0  0  0  0  0  0  0  0  0  0
   19.9080    0.8624  -10.0221 N   0  0  0  0  0  0  0  0  0  0  0  0
   23.0950   -0.9843   -9.2672 C   0  0  0  0  0  0  0  0  0  0  0  0
   24.3519   -0.8674   -8.7107 C   0  0  0  0  0  0  0  0  0  0  0  0
   25.4540   -0.4714   -9.4419 C   0  0  0  0  0  0  0  0  0  0  0  0
   26.9995   -0.3484   -8.6806 S   0  0  1  0  0  6  0  0  0  0  0  0
   27.6897    1.2571   -8.7115 C   0  0  0  0  0  0  0  0  0  0  0  0
   26.8810   -0.7852   -7.2378 O   0  0  0  0  0  0  0  0  0  0  0  0
   27.9934   -1.2935   -9.3157 O   0  0  0  0  0  0  0  0  0  0  0  0
  1  2  1  1
  2  3  1  0
  3  4  2  0
  4  5  1  0
  5  6  1  0
  6  7  1  1
  6  8  1  0
  8  9  3  0
  5 10  2  0
 10 11  1  0
 11 12  2  0
 13 12  1  6
 14 13  1  1
 13 15  2  0
 13 16  2  0
 12  3  1  0
M  END
$$$$
