_rank19
     RDKit          3D

 16 16  0  0  0  0  0  0  0  0999 V2000
   23.6939   -3.3161  -12.1154 C   0  0  0  0  0  0  0  0  0  0  0  0
   24.6192   -2.6052  -10.7101 S   0  0  0  0  0  0  0  0  0  0  0  0
   23.8850   -1.1205  -10.1132 C   0  0  0  0  0  0  0  0  0  0  0  0
   22.5162   -0.9340  -10.2751 C   0  0  0  0  0  0  0  0  0  0  0  0
   21.9053    0.1988   -9.8283 C   0  0  0  0  0  0  0  0  0  0  0  0
   20.4492    0.4570   -9.9711 C   0  0  1  0  0  0  0  0  0  0  0  0
   19.7075   -0.1425   -8.9045 N   0  0  0  0  0  0  0  0  0  0  0  0
   20.1899    1.8999   -9.9527 C   0  0  0  0  0  0  0  0  0  0  0  0
   19.9955    3.0262   -9.9567 N   0  0  0  0  0  0  0  0  0  0  0  0
   22.6828    1.1583   -9.2093 C   0  0  0  0  0  0  0  0  0  0  0  0
   24.0395    0.9616   -9.0546 C   0  0  0  0  0  0  0  0  0  0  0  0
   24.6803   -0.1777   -9.4990 C   0  0  0  0  0  0  0  0  0  0  0  0
   26.3827   -0.3587   -9.2700 S   0  0  1  0  0  6  0  0  0  0  0  0
   26.9966    0.3976   -7.8188 C   0  0  0  0  0  0  0  0  0  0  0  0
   26.7254   -1.8306   -9.2182 O   0  0  0  0  0  0  0  0  0  0  0  0
   27.1503    0.2008  -10.4456 O   0  0  0  0  0  0  0  0  0  0  0  0
  1  2  1  1
  2  3  1  0
  3  4  2  0
  4  5  1  0
  5  6  1  0
  6  7  1  1
  6  8  1  0
  8  9  3  0
  5 10  2  0
 10 11  1  0
 11 12  2  0
 13 12  1  6
 14 13  1  1
 13 15  2  0
 13 16  2  0
 12  3  1  0
M  END
$$$$
