_rank8
     RDKit          3D

 21 22  0  0  0  0  0  0  0  0999 V2000
   20.3693   -1.9438  -13.1392 C   0  0  0  0  0  0  0  0  0  0  0  0
   21.6064   -1.6848  -12.5644 O   0  0  0  0  0  0  0  0  0  0  0  0
   21.7827   -0.9066  -11.4170 C   0  0  0  0  0  0  0  0  0  0  0  0
   20.6606   -0.5797  -10.7042 C   0  0  0  0  0  0  0  0  0  0  0  0
   20.7519    0.1978   -9.5489 C   0  0  0  0  0  0  0  0  0  0  0  0
   19.5490    0.5347   -8.8099 C   0  0  0  0  0  0  0  0  0  0  0  0
   18.6921    1.5697   -9.3463 N   0  0  0  0  0  0  0  0  0  0  0  0
   19.1788    0.0080   -7.7400 O   0  0  0  0  0  0  0  0  0  0  0  0
   22.0016    0.6066   -9.1783 C   0  0  0  0  0  0  0  0  0  0  0  0
   23.1333    0.2805   -9.8890 C   0  0  0  0  0  0  0  0  0  0  0  0
   23.0121   -0.4836  -11.0179 C   0  0  0  0  0  0  0  0  0  0  0  0
   24.1461   -0.8206  -11.7469 O   0  0  0  0  0  0  0  0  0  0  0  0
   25.4291   -0.4962  -11.3217 C   0  0  0  0  0  0  0  0  0  0  0  0
   25.7968   -0.8213  -10.0414 C   0  0  0  0  0  0  0  0  0  0  0  0
   27.0430   -0.5448   -9.5162 C   0  0  0  0  0  0  0  0  0  0  0  0
   27.4398   -0.8589   -8.2379 C   0  0  0  0  0  0  0  0  0  0  0  0
   27.7819   -1.1436   -7.0628 N   0  0  0  0  0  0  0  0  0  0  0  0
   27.9274    0.1100  -10.4132 C   0  0  0  0  0  0  0  0  0  0  0  0
   27.5640    0.4368  -11.6923 C   0  0  0  0  0  0  0  0  0  0  0  0
   26.2964    0.1375  -12.1773 C   0  0  0  0  0  0  0  0  0  0  0  0
   25.9131    0.4512  -13.4915 N   0  0  0  0  0  0  0  0  0  0  0  0
  1  2  1  6
  2  3  1  0
  3  4  2  0
  4  5  1  0
  5  6  1  0
  6  7  1  0
  6  8  2  0
  5  9  2  0
  9 10  1  0
 10 11  2  0
 11 12  1  0
 12 13  1  0
 13 14  2  0
 14 15  1  0
 15 16  1  0
 16 17  3  0
 15 18  2  0
 18 19  1  0
 19 20  2  0
 20 21  1  0
 11  3  1  0
 20 13  1  0
M  END
$$$$
