_rank20
     RDKit          3D

 21 22  0  0  0  0  0  0  0  0999 V2000
   22.4600    2.5781   -8.3250 C   0  0  0  0  0  0  0  0  0  0  0  0
   22.4166    1.6243   -9.3331 O   0  0  0  0  0  0  0  0  0  0  0  0
   23.5110    0.8410   -9.7096 C   0  0  0  0  0  0  0  0  0  0  0  0
   24.6574    0.9722   -8.9727 C   0  0  0  0  0  0  0  0  0  0  0  0
   25.7954    0.2281   -9.2872 C   0  0  0  0  0  0  0  0  0  0  0  0
   27.0008    0.3848   -8.4942 C   0  0  0  0  0  0  0  0  0  0  0  0
   27.5104    1.7239   -8.2937 N   0  0  0  0  0  0  0  0  0  0  0  0
   27.6484   -0.5402   -7.9612 O   0  0  0  0  0  0  0  0  0  0  0  0
   25.7013   -0.6214  -10.3529 C   0  0  0  0  0  0  0  0  0  0  0  0
   24.5522   -0.7591  -11.0966 C   0  0  0  0  0  0  0  0  0  0  0  0
   23.4522   -0.0162  -10.7639 C   0  0  0  0  0  0  0  0  0  0  0  0
   22.2843   -0.1437  -11.5060 O   0  0  0  0  0  0  0  0  0  0  0  0
   21.4994   -1.2903  -11.4692 C   0  0  0  0  0  0  0  0  0  0  0  0
   21.9537   -2.3728  -10.7606 C   0  0  0  0  0  0  0  0  0  0  0  0
   21.2573   -3.5601  -10.6591 C   0  0  0  0  0  0  0  0  0  0  0  0
   21.6869   -4.6608   -9.9562 C   0  0  0  0  0  0  0  0  0  0  0  0
   22.0818   -5.6543   -9.2960 N   0  0  0  0  0  0  0  0  0  0  0  0
   20.0184   -3.5766  -11.3523 C   0  0  0  0  0  0  0  0  0  0  0  0
   19.5613   -2.4981  -12.0613 C   0  0  0  0  0  0  0  0  0  0  0  0
   20.2986   -1.3223  -12.1348 C   0  0  0  0  0  0  0  0  0  0  0  0
   19.8370   -0.2015  -12.8441 N   0  0  0  0  0  0  0  0  0  0  0  0
  1  2  1  6
  2  3  1  0
  3  4  2  0
  4  5  1  0
  5  6  1  0
  6  7  1  0
  6  8  2  0
  5  9  2  0
  9 10  1  0
 10 11  2  0
 11 12  1  0
 12 13  1  0
 13 14  2  0
 14 15  1  0
 15 16  1  0
 16 17  3  0
 15 18  2  0
 18 19  1  0
 19 20  2  0
 20 21  1  0
 11  3  1  0
 20 13  1  0
M  END
$$$$
