_rank7
     RDKit          3D

 21 22  0  0  0  0  0  0  0  0999 V2000
   20.6703   -3.3524  -11.4721 C   0  0  0  0  0  0  0  0  0  0  0  0
   21.6562   -2.3987  -11.6871 O   0  0  0  0  0  0  0  0  0  0  0  0
   21.6326   -1.1172  -11.1301 C   0  0  0  0  0  0  0  0  0  0  0  0
   20.4639   -0.7111  -10.5440 C   0  0  0  0  0  0  0  0  0  0  0  0
   20.3581    0.5560   -9.9688 C   0  0  0  0  0  0  0  0  0  0  0  0
   19.1088    0.9669   -9.3551 C   0  0  0  0  0  0  0  0  0  0  0  0
   19.0180    2.3164   -8.8415 N   0  0  0  0  0  0  0  0  0  0  0  0
   18.0906    0.2555   -9.2268 O   0  0  0  0  0  0  0  0  0  0  0  0
   21.4666    1.3525  -10.0242 C   0  0  0  0  0  0  0  0  0  0  0  0
   22.6444    0.9503  -10.6102 C   0  0  0  0  0  0  0  0  0  0  0  0
   22.7178   -0.2982  -11.1658 C   0  0  0  0  0  0  0  0  0  0  0  0
   23.9005   -0.7187  -11.7621 O   0  0  0  0  0  0  0  0  0  0  0  0
   25.1411   -0.5470  -11.1590 C   0  0  0  0  0  0  0  0  0  0  0  0
   25.2001   -0.4732   -9.7911 C   0  0  0  0  0  0  0  0  0  0  0  0
   26.3768   -0.3023   -9.0903 C   0  0  0  0  0  0  0  0  0  0  0  0
   26.4668   -0.2254   -7.7205 C   0  0  0  0  0  0  0  0  0  0  0  0
   26.5321   -0.1412   -6.4685 N   0  0  0  0  0  0  0  0  0  0  0  0
   27.5371   -0.2079   -9.9028 C   0  0  0  0  0  0  0  0  0  0  0  0
   27.4826   -0.2807  -11.2691 C   0  0  0  0  0  0  0  0  0  0  0  0
   26.2729   -0.4537  -11.9312 C   0  0  0  0  0  0  0  0  0  0  0  0
   26.2012   -0.5465  -13.3307 N   0  0  0  0  0  0  0  0  0  0  0  0
  1  2  1  6
  2  3  1  0
  3  4  2  0
  4  5  1  0
  5  6  1  0
  6  7  1  0
  6  8  2  0
  5  9  2  0
  9 10  1  0
 10 11  2  0
 11 12  1  0
 12 13  1  0
 13 14  2  0
 14 15  1  0
 15 16  1  0
 16 17  3  0
 15 18  2  0
 18 19  1  0
 19 20  2  0
 20 21  1  0
 11  3  1  0
 20 13  1  0
M  END
$$$$
