_rank15
     RDKit          3D

 21 22  0  0  0  0  0  0  0  0999 V2000
   21.9632   -1.7304  -14.4805 C   0  0  0  0  0  0  0  0  0  0  0  0
   22.9247   -1.6086  -13.4863 O   0  0  0  0  0  0  0  0  0  0  0  0
   22.6252   -1.4549  -12.1299 C   0  0  0  0  0  0  0  0  0  0  0  0
   21.3207   -1.6309  -11.7534 C   0  0  0  0  0  0  0  0  0  0  0  0
   20.9396   -1.4909  -10.4182 C   0  0  0  0  0  0  0  0  0  0  0  0
   19.5507   -1.6795  -10.0416 C   0  0  0  0  0  0  0  0  0  0  0  0
   18.6894   -2.3886  -10.9628 N   0  0  0  0  0  0  0  0  0  0  0  0
   19.0217   -1.2819   -8.9827 O   0  0  0  0  0  0  0  0  0  0  0  0
   21.9243   -1.1732   -9.5262 C   0  0  0  0  0  0  0  0  0  0  0  0
   23.2370   -0.9963   -9.8975 C   0  0  0  0  0  0  0  0  0  0  0  0
   23.5805   -1.1405  -11.2143 C   0  0  0  0  0  0  0  0  0  0  0  0
   24.9023   -0.9644  -11.6050 O   0  0  0  0  0  0  0  0  0  0  0  0
   25.8772   -0.4818  -10.7396 C   0  0  0  0  0  0  0  0  0  0  0  0
   26.4121   -1.3384   -9.8122 C   0  0  0  0  0  0  0  0  0  0  0  0
   27.3827   -0.9647   -8.9047 C   0  0  0  0  0  0  0  0  0  0  0  0
   27.9375   -1.8008   -7.9648 C   0  0  0  0  0  0  0  0  0  0  0  0
   28.4644   -2.5600   -7.1133 N   0  0  0  0  0  0  0  0  0  0  0  0
   27.7915    0.3911   -9.0053 C   0  0  0  0  0  0  0  0  0  0  0  0
   27.2595    1.2499   -9.9297 C   0  0  0  0  0  0  0  0  0  0  0  0
   26.2832    0.8274  -10.8240 C   0  0  0  0  0  0  0  0  0  0  0  0
   25.7388    1.6908  -11.7887 N   0  0  0  0  0  0  0  0  0  0  0  0
  1  2  1  6
  2  3  1  0
  3  4  2  0
  4  5  1  0
  5  6  1  0
  6  7  1  0
  6  8  2  0
  5  9  2  0
  9 10  1  0
 10 11  2  0
 11 12  1  0
 12 13  1  0
 13 14  2  0
 14 15  1  0
 15 16  1  0
 16 17  3  0
 15 18  2  0
 18 19  1  0
 19 20  2  0
 20 21  1  0
 11  3  1  0
 20 13  1  0
M  END
$$$$
