_rank12
     RDKit          3D

 21 22  0  0  0  0  0  0  0  0999 V2000
   22.4054   -1.3249  -13.8995 C   0  0  0  0  0  0  0  0  0  0  0  0
   22.4774   -1.8467  -12.6149 O   0  0  0  0  0  0  0  0  0  0  0  0
   22.1676   -1.1199  -11.4622 C   0  0  0  0  0  0  0  0  0  0  0  0
   20.8543   -0.7856  -11.2675 C   0  0  0  0  0  0  0  0  0  0  0  0
   20.4638   -0.0570  -10.1430 C   0  0  0  0  0  0  0  0  0  0  0  0
   19.0665    0.2888   -9.9578 C   0  0  0  0  0  0  0  0  0  0  0  0
   18.7565    1.6089   -9.4535 N   0  0  0  0  0  0  0  0  0  0  0  0
   18.0931   -0.4561  -10.1962 O   0  0  0  0  0  0  0  0  0  0  0  0
   21.4490    0.2971   -9.2654 C   0  0  0  0  0  0  0  0  0  0  0  0
   22.7701   -0.0367   -9.4542 C   0  0  0  0  0  0  0  0  0  0  0  0
   23.1225   -0.7520  -10.5664 C   0  0  0  0  0  0  0  0  0  0  0  0
   24.4531   -1.0962  -10.7714 O   0  0  0  0  0  0  0  0  0  0  0  0
   25.4971   -0.4662  -10.1041 C   0  0  0  0  0  0  0  0  0  0  0  0
   25.8097    0.8243  -10.4464 C   0  0  0  0  0  0  0  0  0  0  0  0
   26.8265    1.5426   -9.8505 C   0  0  0  0  0  0  0  0  0  0  0  0
   27.1621    2.8365  -10.1722 C   0  0  0  0  0  0  0  0  0  0  0  0
   27.4503    4.0259  -10.4572 N   0  0  0  0  0  0  0  0  0  0  0  0
   27.5336    0.8359   -8.8426 C   0  0  0  0  0  0  0  0  0  0  0  0
   27.2250   -0.4529   -8.4979 C   0  0  0  0  0  0  0  0  0  0  0  0
   26.1912   -1.1364   -9.1267 C   0  0  0  0  0  0  0  0  0  0  0  0
   25.8512   -2.4526   -8.7742 N   0  0  0  0  0  0  0  0  0  0  0  0
  1  2  1  6
  2  3  1  0
  3  4  2  0
  4  5  1  0
  5  6  1  0
  6  7  1  0
  6  8  2  0
  5  9  2  0
  9 10  1  0
 10 11  2  0
 11 12  1  0
 12 13  1  0
 13 14  2  0
 14 15  1  0
 15 16  1  0
 16 17  3  0
 15 18  2  0
 18 19  1  0
 19 20  2  0
 20 21  1  0
 11  3  1  0
 20 13  1  0
M  END
$$$$
