_rank1
     RDKit          3D

 21 22  0  0  0  0  0  0  0  0999 V2000
   26.7296    0.5716  -13.3391 C   0  0  0  0  0  0  0  0  0  0  0  0
   25.4929    0.4956  -12.7125 O   0  0  0  0  0  0  0  0  0  0  0  0
   25.3246    0.1888  -11.3595 C   0  0  0  0  0  0  0  0  0  0  0  0
   26.4542    0.1141  -10.5897 C   0  0  0  0  0  0  0  0  0  0  0  0
   26.3711   -0.1912   -9.2304 C   0  0  0  0  0  0  0  0  0  0  0  0
   27.5817   -0.2678   -8.4336 C   0  0  0  0  0  0  0  0  0  0  0  0
   27.6733   -1.3151   -7.4396 N   0  0  0  0  0  0  0  0  0  0  0  0
   28.5654    0.4956   -8.5265 O   0  0  0  0  0  0  0  0  0  0  0  0
   25.1215   -0.4079   -8.7227 C   0  0  0  0  0  0  0  0  0  0  0  0
   23.9823   -0.3330   -9.4901 C   0  0  0  0  0  0  0  0  0  0  0  0
   24.0956   -0.0313  -10.8202 C   0  0  0  0  0  0  0  0  0  0  0  0
   22.9540    0.0473  -11.6087 O   0  0  0  0  0  0  0  0  0  0  0  0
   21.6910   -0.2739  -11.1253 C   0  0  0  0  0  0  0  0  0  0  0  0
   20.9338    0.7195  -10.5596 C   0  0  0  0  0  0  0  0  0  0  0  0
   19.6691    0.5115  -10.0472 C   0  0  0  0  0  0  0  0  0  0  0  0
   18.8872    1.4870   -9.4752 C   0  0  0  0  0  0  0  0  0  0  0  0
   18.1603    2.3630   -8.9431 N   0  0  0  0  0  0  0  0  0  0  0  0
   19.2047   -0.8260  -10.1518 C   0  0  0  0  0  0  0  0  0  0  0  0
   19.9577   -1.8209  -10.7156 C   0  0  0  0  0  0  0  0  0  0  0  0
   21.2273   -1.5632  -11.2188 C   0  0  0  0  0  0  0  0  0  0  0  0
   22.0061   -2.5685  -11.8147 N   0  0  0  0  0  0  0  0  0  0  0  0
  1  2  1  6
  2  3  1  0
  3  4  2  0
  4  5  1  0
  5  6  1  0
  6  7  1  0
  6  8  2  0
  5  9  2  0
  9 10  1  0
 10 11  2  0
 11 12  1  0
 12 13  1  0
 13 14  2  0
 14 15  1  0
 15 16  1  0
 16 17  3  0
 15 18  2  0
 18 19  1  0
 19 20  2  0
 20 21  1  0
 11  3  1  0
 20 13  1  0
M  END
$$$$
