_rank18
     RDKit          3D

 21 22  0  0  0  0  0  0  0  0999 V2000
   22.9802    0.3301   -6.7490 C   0  0  0  0  0  0  0  0  0  0  0  0
   23.5244    0.5945   -7.9986 O   0  0  0  0  0  0  0  0  0  0  0  0
   23.2889   -0.1902   -9.1308 C   0  0  0  0  0  0  0  0  0  0  0  0
   22.1188   -0.8999   -9.1678 C   0  0  0  0  0  0  0  0  0  0  0  0
   21.8115   -1.7103  -10.2617 C   0  0  0  0  0  0  0  0  0  0  0  0
   20.5665   -2.4561  -10.2789 C   0  0  0  0  0  0  0  0  0  0  0  0
   19.8105   -2.5407   -9.0482 N   0  0  0  0  0  0  0  0  0  0  0  0
   20.0795   -3.0396  -11.2696 O   0  0  0  0  0  0  0  0  0  0  0  0
   22.7286   -1.7541  -11.2732 C   0  0  0  0  0  0  0  0  0  0  0  0
   23.9054   -1.0425  -11.2431 C   0  0  0  0  0  0  0  0  0  0  0  0
   24.1790   -0.2561  -10.1570 C   0  0  0  0  0  0  0  0  0  0  0  0
   25.3640    0.4683  -10.1116 O   0  0  0  0  0  0  0  0  0  0  0  0
   26.4082    0.2454  -11.0017 C   0  0  0  0  0  0  0  0  0  0  0  0
   27.2867   -0.7741  -10.7390 C   0  0  0  0  0  0  0  0  0  0  0  0
   28.3580   -1.0816  -11.5531 C   0  0  0  0  0  0  0  0  0  0  0  0
   29.2542   -2.0969  -11.3159 C   0  0  0  0  0  0  0  0  0  0  0  0
   30.0617   -3.0306  -11.0813 N   0  0  0  0  0  0  0  0  0  0  0  0
   28.4835   -0.2523  -12.6986 C   0  0  0  0  0  0  0  0  0  0  0  0
   27.6087    0.7670  -12.9644 C   0  0  0  0  0  0  0  0  0  0  0  0
   26.5434    1.0390  -12.1143 C   0  0  0  0  0  0  0  0  0  0  0  0
   25.6278    2.0701  -12.3805 N   0  0  0  0  0  0  0  0  0  0  0  0
  1  2  1  6
  2  3  1  0
  3  4  2  0
  4  5  1  0
  5  6  1  0
  6  7  1  0
  6  8  2  0
  5  9  2  0
  9 10  1  0
 10 11  2  0
 11 12  1  0
 12 13  1  0
 13 14  2  0
 14 15  1  0
 15 16  1  0
 16 17  3  0
 15 18  2  0
 18 19  1  0
 19 20  2  0
 20 21  1  0
 11  3  1  0
 20 13  1  0
M  END
$$$$
