_rank13
     RDKit          3D

 21 22  0  0  0  0  0  0  0  0999 V2000
   22.7145    0.1094  -14.3673 C   0  0  0  0  0  0  0  0  0  0  0  0
   23.5053   -0.4693  -13.3836 O   0  0  0  0  0  0  0  0  0  0  0  0
   23.0476   -0.7770  -12.0995 C   0  0  0  0  0  0  0  0  0  0  0  0
   21.7150   -1.0583  -11.9610 C   0  0  0  0  0  0  0  0  0  0  0  0
   21.1792   -1.3711  -10.7109 C   0  0  0  0  0  0  0  0  0  0  0  0
   19.7631   -1.6636  -10.5865 C   0  0  0  0  0  0  0  0  0  0  0  0
   18.8374   -0.8772  -11.3725 N   0  0  0  0  0  0  0  0  0  0  0  0
   19.2614   -2.5423   -9.8548 O   0  0  0  0  0  0  0  0  0  0  0  0
   22.0446   -1.3791   -9.6539 C   0  0  0  0  0  0  0  0  0  0  0  0
   23.3848   -1.0987   -9.7863 C   0  0  0  0  0  0  0  0  0  0  0  0
   23.8813   -0.7958  -11.0251 C   0  0  0  0  0  0  0  0  0  0  0  0
   25.2328   -0.5097  -11.1748 O   0  0  0  0  0  0  0  0  0  0  0  0
   26.1359   -0.6061  -10.1225 C   0  0  0  0  0  0  0  0  0  0  0  0
   26.5285    0.5446   -9.4885 C   0  0  0  0  0  0  0  0  0  0  0  0
   27.4202    0.5645   -8.4351 C   0  0  0  0  0  0  0  0  0  0  0  0
   27.8314    1.7013   -7.7803 C   0  0  0  0  0  0  0  0  0  0  0  0
   28.1956    2.7523   -7.1959 N   0  0  0  0  0  0  0  0  0  0  0  0
   27.9066   -0.7131   -8.0519 C   0  0  0  0  0  0  0  0  0  0  0  0
   27.5175   -1.8645   -8.6826 C   0  0  0  0  0  0  0  0  0  0  0  0
   26.6159   -1.8346   -9.7399 C   0  0  0  0  0  0  0  0  0  0  0  0
   26.1941   -3.0074  -10.3871 N   0  0  0  0  0  0  0  0  0  0  0  0
  1  2  1  6
  2  3  1  0
  3  4  2  0
  4  5  1  0
  5  6  1  0
  6  7  1  0
  6  8  2  0
  5  9  2  0
  9 10  1  0
 10 11  2  0
 11 12  1  0
 12 13  1  0
 13 14  2  0
 14 15  1  0
 15 16  1  0
 16 17  3  0
 15 18  2  0
 18 19  1  0
 19 20  2  0
 20 21  1  0
 11  3  1  0
 20 13  1  0
M  END
$$$$
