_rank3
     RDKit          3D

 21 22  0  0  0  0  0  0  0  0999 V2000
   26.1367    0.9317  -13.1288 C   0  0  0  0  0  0  0  0  0  0  0  0
   24.9455    0.6561  -12.4710 O   0  0  0  0  0  0  0  0  0  0  0  0
   24.8751    0.1083  -11.1873 C   0  0  0  0  0  0  0  0  0  0  0  0
   25.8980    0.4004  -10.3255 C   0  0  0  0  0  0  0  0  0  0  0  0
   25.9036   -0.1113   -9.0271 C   0  0  0  0  0  0  0  0  0  0  0  0
   26.9993    0.2091   -8.1309 C   0  0  0  0  0  0  0  0  0  0  0  0
   28.2612    0.6044   -8.7180 N   0  0  0  0  0  0  0  0  0  0  0  0
   26.9549    0.1755   -6.8835 O   0  0  0  0  0  0  0  0  0  0  0  0
   24.8503   -0.9060   -8.6732 C   0  0  0  0  0  0  0  0  0  0  0  0
   23.8187   -1.2023   -9.5336 C   0  0  0  0  0  0  0  0  0  0  0  0
   23.8407   -0.6856  -10.8006 C   0  0  0  0  0  0  0  0  0  0  0  0
   22.8061   -0.9764  -11.6816 O   0  0  0  0  0  0  0  0  0  0  0  0
   21.4698   -0.7817  -11.3520 C   0  0  0  0  0  0  0  0  0  0  0  0
   21.1456    0.2557  -10.5161 C   0  0  0  0  0  0  0  0  0  0  0  0
   19.8530    0.5384  -10.1231 C   0  0  0  0  0  0  0  0  0  0  0  0
   19.4981    1.5708   -9.2874 C   0  0  0  0  0  0  0  0  0  0  0  0
   19.1526    2.5105   -8.5281 N   0  0  0  0  0  0  0  0  0  0  0  0
   18.8711   -0.3371  -10.6569 C   0  0  0  0  0  0  0  0  0  0  0  0
   19.1906   -1.3744  -11.4916 C   0  0  0  0  0  0  0  0  0  0  0  0
   20.5080   -1.6201  -11.8600 C   0  0  0  0  0  0  0  0  0  0  0  0
   20.8512   -2.6696  -12.7278 N   0  0  0  0  0  0  0  0  0  0  0  0
  1  2  1  6
  2  3  1  0
  3  4  2  0
  4  5  1  0
  5  6  1  0
  6  7  1  0
  6  8  2  0
  5  9  2  0
  9 10  1  0
 10 11  2  0
 11 12  1  0
 12 13  1  0
 13 14  2  0
 14 15  1  0
 15 16  1  0
 16 17  3  0
 15 18  2  0
 18 19  1  0
 19 20  2  0
 20 21  1  0
 11  3  1  0
 20 13  1  0
M  END
$$$$
