_rank12
     RDKit          3D

 19 21  0  0  0  0  0  0  0  0999 V2000
   29.4625    0.9988   -9.0321 N   0  0  0  0  0  0  0  0  0  0  0  0
   28.3852    0.5775   -8.9631 C   0  0  0  0  0  0  0  0  0  0  0  0
   27.0564    0.0777   -8.8918 C   0  0  0  0  0  0  0  0  0  0  0  0
   26.6243   -0.4871   -7.7154 C   0  0  0  0  0  0  0  0  0  0  0  0
   25.3438   -0.9766   -7.6242 C   0  0  0  0  0  0  0  0  0  0  0  0
   24.9265   -1.5254   -6.4783 F   0  0  0  0  0  0  0  0  0  0  0  0
   24.5083   -0.8907   -8.7263 C   0  0  0  0  0  0  0  0  0  0  0  0
   24.9152   -0.3303   -9.9158 C   0  0  0  0  0  0  0  0  0  0  0  0
   24.0131   -0.2860  -10.9667 O   0  0  0  0  0  0  0  0  0  0  0  0
   22.6427   -0.3043  -10.7205 C   0  0  0  0  0  0  0  0  0  0  0  0
   22.0865    0.6803   -9.9287 C   0  0  0  0  0  0  0  0  0  0  0  0
   20.7302    0.6862   -9.6683 C   0  0  0  0  0  0  0  0  0  0  0  0
   19.9013   -0.2899  -10.1923 C   0  0  0  0  0  0  0  0  0  0  0  0
   20.4577   -1.2723  -10.9826 C   0  0  0  0  0  0  0  0  0  0  0  0
   21.8162   -1.2764  -11.2422 C   0  0  0  0  0  0  0  0  0  0  0  0
   19.4431   -2.1540  -11.4059 O   0  0  0  0  0  0  0  0  0  0  0  0
   18.2255   -1.3920  -11.3744 C   0  0  0  0  0  0  0  0  0  0  0  0
   18.4560   -0.5787  -10.1193 C   0  0  0  0  0  0  0  0  0  0  0  0
   26.1992    0.1559   -9.9939 C   0  0  0  0  0  0  0  0  0  0  0  0
  1  2  3  0
  2  3  1  0
  3  4  2  0
  4  5  1  0
  5  6  1  0
  5  7  2  0
  7  8  1  0
  8  9  1  0
  9 10  1  0
 10 11  2  0
 11 12  1  0
 12 13  2  0
 13 14  1  0
 14 15  2  0
 14 16  1  0
 17 16  1  6
 17 18  1  0
  8 19  2  0
 19  3  1  0
 15 10  1  0
 18 13  1  1
M  END
$$$$
