_rank4
     RDKit          3D

 19 21  0  0  0  0  0  0  0  0999 V2000
   28.1154   -0.3739   -7.4055 N   0  0  0  0  0  0  0  0  0  0  0  0
   27.4598   -0.3476   -8.3607 C   0  0  0  0  0  0  0  0  0  0  0  0
   26.6518   -0.3376   -9.5301 C   0  0  0  0  0  0  0  0  0  0  0  0
   26.9927    0.5035  -10.5626 C   0  0  0  0  0  0  0  0  0  0  0  0
   26.2258    0.5293  -11.7023 C   0  0  0  0  0  0  0  0  0  0  0  0
   26.5602    1.3487  -12.7049 F   0  0  0  0  0  0  0  0  0  0  0  0
   25.1173   -0.2977  -11.7888 C   0  0  0  0  0  0  0  0  0  0  0  0
   24.7536   -1.1490  -10.7703 C   0  0  0  0  0  0  0  0  0  0  0  0
   23.6296   -1.9410  -10.9424 O   0  0  0  0  0  0  0  0  0  0  0  0
   22.3578   -1.4151  -10.7308 C   0  0  0  0  0  0  0  0  0  0  0  0
   21.2858   -2.2749  -10.5991 C   0  0  0  0  0  0  0  0  0  0  0  0
   20.0135   -1.7804  -10.3886 C   0  0  0  0  0  0  0  0  0  0  0  0
   19.7849   -0.4183  -10.3050 C   0  0  0  0  0  0  0  0  0  0  0  0
   20.8558    0.4390  -10.4365 C   0  0  0  0  0  0  0  0  0  0  0  0
   22.1292   -0.0583  -10.6474 C   0  0  0  0  0  0  0  0  0  0  0  0
   20.4008    1.7676  -10.3197 O   0  0  0  0  0  0  0  0  0  0  0  0
   19.1955    1.7003   -9.5406 C   0  0  0  0  0  0  0  0  0  0  0  0
   18.5939    0.4274  -10.0952 C   0  0  0  0  0  0  0  0  0  0  0  0
   25.5296   -1.1653   -9.6351 C   0  0  0  0  0  0  0  0  0  0  0  0
  1  2  3  0
  2  3  1  0
  3  4  2  0
  4  5  1  0
  5  6  1  0
  5  7  2  0
  7  8  1  0
  8  9  1  0
  9 10  1  0
 10 11  2  0
 11 12  1  0
 12 13  2  0
 13 14  1  0
 14 15  2  0
 14 16  1  0
 17 16  1  6
 17 18  1  0
  8 19  2  0
 19  3  1  0
 15 10  1  0
 18 13  1  1
M  END
$$$$
