_rank13
     RDKit          3D

 19 21  0  0  0  0  0  0  0  0999 V2000
   17.2508    1.1556  -10.5154 N   0  0  0  0  0  0  0  0  0  0  0  0
   18.2713    0.6103  -10.4513 C   0  0  0  0  0  0  0  0  0  0  0  0
   19.5331   -0.0387  -10.3672 C   0  0  0  0  0  0  0  0  0  0  0  0
   19.6142   -1.3719  -10.6922 C   0  0  0  0  0  0  0  0  0  0  0  0
   20.8239   -2.0192  -10.6180 C   0  0  0  0  0  0  0  0  0  0  0  0
   20.8994   -3.3163  -10.9350 F   0  0  0  0  0  0  0  0  0  0  0  0
   21.9447   -1.3112  -10.2146 C   0  0  0  0  0  0  0  0  0  0  0  0
   21.8915    0.0236   -9.8836 C   0  0  0  0  0  0  0  0  0  0  0  0
   23.0620    0.6528   -9.4905 O   0  0  0  0  0  0  0  0  0  0  0  0
   24.3001    0.1085   -9.8217 C   0  0  0  0  0  0  0  0  0  0  0  0
   24.6331   -0.0502  -11.1520 C   0  0  0  0  0  0  0  0  0  0  0  0
   25.8544   -0.5874  -11.5088 C   0  0  0  0  0  0  0  0  0  0  0  0
   26.7683   -0.9771  -10.5458 C   0  0  0  0  0  0  0  0  0  0  0  0
   26.4349   -0.8181   -9.2180 C   0  0  0  0  0  0  0  0  0  0  0  0
   25.2112   -0.2799   -8.8630 C   0  0  0  0  0  0  0  0  0  0  0  0
   27.5000   -1.2753   -8.4166 O   0  0  0  0  0  0  0  0  0  0  0  0
   28.6794   -1.1530   -9.2278 C   0  0  0  0  0  0  0  0  0  0  0  0
   28.1199   -1.5689  -10.5708 C   0  0  0  0  0  0  0  0  0  0  0  0
   20.6749    0.6597   -9.9621 C   0  0  0  0  0  0  0  0  0  0  0  0
  1  2  3  0
  2  3  1  0
  3  4  2  0
  4  5  1  0
  5  6  1  0
  5  7  2  0
  7  8  1  0
  8  9  1  0
  9 10  1  0
 10 11  2  0
 11 12  1  0
 12 13  2  0
 13 14  1  0
 14 15  2  0
 14 16  1  0
 17 16  1  6
 17 18  1  0
  8 19  2  0
 19  3  1  0
 15 10  1  0
 18 13  1  1
M  END
$$$$
