_rank8
     RDKit          3D

 19 21  0  0  0  0  0  0  0  0999 V2000
   18.4634    2.2480   -8.8108 N   0  0  0  0  0  0  0  0  0  0  0  0
   18.9181    1.4483   -9.5155 C   0  0  0  0  0  0  0  0  0  0  0  0
   19.4549    0.4620  -10.3870 C   0  0  0  0  0  0  0  0  0  0  0  0
   18.8162    0.2142  -11.5788 C   0  0  0  0  0  0  0  0  0  0  0  0
   19.3176   -0.7349  -12.4365 C   0  0  0  0  0  0  0  0  0  0  0  0
   18.6939   -0.9735  -13.5951 F   0  0  0  0  0  0  0  0  0  0  0  0
   20.4639   -1.4276  -12.0810 C   0  0  0  0  0  0  0  0  0  0  0  0
   21.1229   -1.1993  -10.8944 C   0  0  0  0  0  0  0  0  0  0  0  0
   22.2625   -1.9384  -10.6202 O   0  0  0  0  0  0  0  0  0  0  0  0
   23.4499   -1.2998  -10.2718 C   0  0  0  0  0  0  0  0  0  0  0  0
   24.0916   -1.6595   -9.1037 C   0  0  0  0  0  0  0  0  0  0  0  0
   25.2706   -1.0424   -8.7340 C   0  0  0  0  0  0  0  0  0  0  0  0
   25.8333   -0.0540   -9.5220 C   0  0  0  0  0  0  0  0  0  0  0  0
   25.1917    0.3043  -10.6879 C   0  0  0  0  0  0  0  0  0  0  0  0
   24.0110   -0.3150  -11.0563 C   0  0  0  0  0  0  0  0  0  0  0  0
   25.9308    1.3187  -11.3287 O   0  0  0  0  0  0  0  0  0  0  0  0
   27.2859    1.1575  -10.8794 C   0  0  0  0  0  0  0  0  0  0  0  0
   27.0417    0.7882   -9.4324 C   0  0  0  0  0  0  0  0  0  0  0  0
   20.6107   -0.2468  -10.0450 C   0  0  0  0  0  0  0  0  0  0  0  0
  1  2  3  0
  2  3  1  0
  3  4  2  0
  4  5  1  0
  5  6  1  0
  5  7  2  0
  7  8  1  0
  8  9  1  0
  9 10  1  0
 10 11  2  0
 11 12  1  0
 12 13  2  0
 13 14  1  0
 14 15  2  0
 14 16  1  0
 17 16  1  6
 17 18  1  0
  8 19  2  0
 19  3  1  0
 15 10  1  0
 18 13  1  1
M  END
$$$$
