_rank14
     RDKit          3D

 19 21  0  0  0  0  0  0  0  0999 V2000
   19.9194   -2.9449   -7.4335 N   0  0  0  0  0  0  0  0  0  0  0  0
   20.2592   -2.6517   -8.5019 C   0  0  0  0  0  0  0  0  0  0  0  0
   20.6971   -2.2994   -9.8075 C   0  0  0  0  0  0  0  0  0  0  0  0
   19.8978   -2.6141  -10.8807 C   0  0  0  0  0  0  0  0  0  0  0  0
   20.3015   -2.2829  -12.1516 C   0  0  0  0  0  0  0  0  0  0  0  0
   19.5215   -2.5905  -13.1935 F   0  0  0  0  0  0  0  0  0  0  0  0
   21.5134   -1.6344  -12.3274 C   0  0  0  0  0  0  0  0  0  0  0  0
   22.3327   -1.3077  -11.2708 C   0  0  0  0  0  0  0  0  0  0  0  0
   23.5277   -0.6594  -11.5388 O   0  0  0  0  0  0  0  0  0  0  0  0
   24.6154   -0.8034  -10.6815 C   0  0  0  0  0  0  0  0  0  0  0  0
   25.1830   -2.0509  -10.5158 C   0  0  0  0  0  0  0  0  0  0  0  0
   26.2626   -2.2223   -9.6717 C   0  0  0  0  0  0  0  0  0  0  0  0
   26.7979   -1.1529   -8.9758 C   0  0  0  0  0  0  0  0  0  0  0  0
   26.2305    0.0920   -9.1421 C   0  0  0  0  0  0  0  0  0  0  0  0
   25.1493    0.2615   -9.9879 C   0  0  0  0  0  0  0  0  0  0  0  0
   26.9256    1.0260   -8.3480 O   0  0  0  0  0  0  0  0  0  0  0  0
   28.2451    0.4851   -8.1741 C   0  0  0  0  0  0  0  0  0  0  0  0
   27.9104   -0.9826   -8.0213 C   0  0  0  0  0  0  0  0  0  0  0  0
   21.9171   -1.6448  -10.0040 C   0  0  0  0  0  0  0  0  0  0  0  0
  1  2  3  0
  2  3  1  0
  3  4  2  0
  4  5  1  0
  5  6  1  0
  5  7  2  0
  7  8  1  0
  8  9  1  0
  9 10  1  0
 10 11  2  0
 11 12  1  0
 12 13  2  0
 13 14  1  0
 14 15  2  0
 14 16  1  0
 17 16  1  6
 17 18  1  0
  8 19  2  0
 19  3  1  0
 15 10  1  0
 18 13  1  1
M  END
$$$$
