_rank7
     RDKit          3D

 19 21  0  0  0  0  0  0  0  0999 V2000
   27.0504    0.3770   -6.7509 N   0  0  0  0  0  0  0  0  0  0  0  0
   26.8682    0.1015   -7.8616 C   0  0  0  0  0  0  0  0  0  0  0  0
   26.6235   -0.2433   -9.2187 C   0  0  0  0  0  0  0  0  0  0  0  0
   27.5869   -0.9408   -9.9080 C   0  0  0  0  0  0  0  0  0  0  0  0
   27.3714   -1.2845  -11.2207 C   0  0  0  0  0  0  0  0  0  0  0  0
   28.3106   -1.9631  -11.8884 F   0  0  0  0  0  0  0  0  0  0  0  0
   26.1803   -0.9191  -11.8273 C   0  0  0  0  0  0  0  0  0  0  0  0
   25.1994   -0.2209  -11.1606 C   0  0  0  0  0  0  0  0  0  0  0  0
   24.0391    0.1031  -11.8455 O   0  0  0  0  0  0  0  0  0  0  0  0
   22.7926   -0.1881  -11.2974 C   0  0  0  0  0  0  0  0  0  0  0  0
   22.5662   -1.4411  -10.7642 C   0  0  0  0  0  0  0  0  0  0  0  0
   21.3393   -1.7568  -10.2143 C   0  0  0  0  0  0  0  0  0  0  0  0
   20.3133   -0.8288  -10.1851 C   0  0  0  0  0  0  0  0  0  0  0  0
   20.5405    0.4218  -10.7176 C   0  0  0  0  0  0  0  0  0  0  0  0
   21.7700    0.7358  -11.2679 C   0  0  0  0  0  0  0  0  0  0  0  0
   19.3730    1.1996  -10.5837 O   0  0  0  0  0  0  0  0  0  0  0  0
   18.6602    0.6446   -9.4666 C   0  0  0  0  0  0  0  0  0  0  0  0
   18.9224   -0.8285   -9.6922 C   0  0  0  0  0  0  0  0  0  0  0  0
   25.4275    0.1170   -9.8473 C   0  0  0  0  0  0  0  0  0  0  0  0
  1  2  3  0
  2  3  1  0
  3  4  2  0
  4  5  1  0
  5  6  1  0
  5  7  2  0
  7  8  1  0
  8  9  1  0
  9 10  1  0
 10 11  2  0
 11 12  1  0
 12 13  2  0
 13 14  1  0
 14 15  2  0
 14 16  1  0
 17 16  1  6
 17 18  1  0
  8 19  2  0
 19  3  1  0
 15 10  1  0
 18 13  1  1
M  END
$$$$
