_rank15
     RDKit          3D

 19 21  0  0  0  0  0  0  0  0999 V2000
   19.8789   -2.0170   -7.6026 N   0  0  0  0  0  0  0  0  0  0  0  0
   20.3412   -1.9426   -8.6626 C   0  0  0  0  0  0  0  0  0  0  0  0
   20.9250   -1.8382   -9.9544 C   0  0  0  0  0  0  0  0  0  0  0  0
   20.2293   -2.3240  -11.0360 C   0  0  0  0  0  0  0  0  0  0  0  0
   20.7747   -2.2335  -12.2938 C   0  0  0  0  0  0  0  0  0  0  0  0
   20.0953   -2.7070  -13.3438 F   0  0  0  0  0  0  0  0  0  0  0  0
   22.0226   -1.6510  -12.4481 C   0  0  0  0  0  0  0  0  0  0  0  0
   22.7403   -1.1568  -11.3828 C   0  0  0  0  0  0  0  0  0  0  0  0
   23.9808   -0.5906  -11.6291 O   0  0  0  0  0  0  0  0  0  0  0  0
   25.0224   -0.7517  -10.7191 C   0  0  0  0  0  0  0  0  0  0  0  0
   25.4813   -2.0228  -10.4374 C   0  0  0  0  0  0  0  0  0  0  0  0
   26.5131   -2.2115   -9.5388 C   0  0  0  0  0  0  0  0  0  0  0  0
   27.1078   -1.1361   -8.9031 C   0  0  0  0  0  0  0  0  0  0  0  0
   26.6489    0.1324   -9.1852 C   0  0  0  0  0  0  0  0  0  0  0  0
   25.6155    0.3191  -10.0854 C   0  0  0  0  0  0  0  0  0  0  0  0
   27.3884    1.0684   -8.4349 O   0  0  0  0  0  0  0  0  0  0  0  0
   28.6531    0.4419   -8.1665 C   0  0  0  0  0  0  0  0  0  0  0  0
   28.1959   -0.9791   -7.9187 C   0  0  0  0  0  0  0  0  0  0  0  0
   22.1832   -1.2536  -10.1292 C   0  0  0  0  0  0  0  0  0  0  0  0
  1  2  3  0
  2  3  1  0
  3  4  2  0
  4  5  1  0
  5  6  1  0
  5  7  2  0
  7  8  1  0
  8  9  1  0
  9 10  1  0
 10 11  2  0
 11 12  1  0
 12 13  2  0
 13 14  1  0
 14 15  2  0
 14 16  1  0
 17 16  1  6
 17 18  1  0
  8 19  2  0
 19  3  1  0
 15 10  1  0
 18 13  1  1
M  END
$$$$
