_rank18
     RDKit          3D

 19 21  0  0  0  0  0  0  0  0999 V2000
   28.8943    0.8606   -8.2406 N   0  0  0  0  0  0  0  0  0  0  0  0
   27.9562    0.2725   -8.5828 C   0  0  0  0  0  0  0  0  0  0  0  0
   26.8119   -0.4458   -9.0243 C   0  0  0  0  0  0  0  0  0  0  0  0
   26.6190   -1.7281   -8.5678 C   0  0  0  0  0  0  0  0  0  0  0  0
   25.5197   -2.4408   -8.9816 C   0  0  0  0  0  0  0  0  0  0  0  0
   25.3350   -3.6880   -8.5356 F   0  0  0  0  0  0  0  0  0  0  0  0
   24.6219   -1.8495   -9.8559 C   0  0  0  0  0  0  0  0  0  0  0  0
   24.7908   -0.5679  -10.3282 C   0  0  0  0  0  0  0  0  0  0  0  0
   23.8431   -0.0559  -11.1999 O   0  0  0  0  0  0  0  0  0  0  0  0
   22.5023    0.0017  -10.8287 C   0  0  0  0  0  0  0  0  0  0  0  0
   22.1528    0.6517   -9.6620 C   0  0  0  0  0  0  0  0  0  0  0  0
   20.8305    0.7239   -9.2699 C   0  0  0  0  0  0  0  0  0  0  0  0
   19.8300    0.1492  -10.0337 C   0  0  0  0  0  0  0  0  0  0  0  0
   20.1801   -0.4993  -11.1982 C   0  0  0  0  0  0  0  0  0  0  0  0
   21.5050   -0.5704  -11.5890 C   0  0  0  0  0  0  0  0  0  0  0  0
   19.0170   -1.0048  -11.8127 O   0  0  0  0  0  0  0  0  0  0  0  0
   17.9399   -0.1719  -11.3544 C   0  0  0  0  0  0  0  0  0  0  0  0
   18.3631    0.0392   -9.9170 C   0  0  0  0  0  0  0  0  0  0  0  0
   25.8952    0.1347   -9.9064 C   0  0  0  0  0  0  0  0  0  0  0  0
  1  2  3  0
  2  3  1  0
  3  4  2  0
  4  5  1  0
  5  6  1  0
  5  7  2  0
  7  8  1  0
  8  9  1  0
  9 10  1  0
 10 11  2  0
 11 12  1  0
 12 13  2  0
 13 14  1  0
 14 15  2  0
 14 16  1  0
 17 16  1  6
 17 18  1  0
  8 19  2  0
 19  3  1  0
 15 10  1  0
 18 13  1  1
M  END
$$$$
