_rank9
     RDKit          3D

 19 21  0  0  0  0  0  0  0  0999 V2000
   27.5750    0.6137   -6.9869 N   0  0  0  0  0  0  0  0  0  0  0  0
   27.1218    0.3291   -8.0148 C   0  0  0  0  0  0  0  0  0  0  0  0
   26.5750   -0.0411   -9.2735 C   0  0  0  0  0  0  0  0  0  0  0  0
   27.2789    0.2609  -10.4151 C   0  0  0  0  0  0  0  0  0  0  0  0
   26.7691   -0.0876  -11.6424 C   0  0  0  0  0  0  0  0  0  0  0  0
   27.4563    0.2076  -12.7510 F   0  0  0  0  0  0  0  0  0  0  0  0
   25.5484   -0.7403  -11.7057 C   0  0  0  0  0  0  0  0  0  0  0  0
   24.8232   -1.0545  -10.5788 C   0  0  0  0  0  0  0  0  0  0  0  0
   23.6115   -1.7083  -10.7354 O   0  0  0  0  0  0  0  0  0  0  0  0
   22.4138   -1.0396  -10.4964 C   0  0  0  0  0  0  0  0  0  0  0  0
   22.4468    0.2825  -10.1005 C   0  0  0  0  0  0  0  0  0  0  0  0
   21.2740    0.9699   -9.8567 C   0  0  0  0  0  0  0  0  0  0  0  0
   20.0444    0.3523  -10.0028 C   0  0  0  0  0  0  0  0  0  0  0  0
   20.0127   -0.9676  -10.3981 C   0  0  0  0  0  0  0  0  0  0  0  0
   21.1885   -1.6541  -10.6417 C   0  0  0  0  0  0  0  0  0  0  0  0
   18.6715   -1.3920  -10.4828 O   0  0  0  0  0  0  0  0  0  0  0  0
   17.9001   -0.2033  -10.7193 C   0  0  0  0  0  0  0  0  0  0  0  0
   18.6403    0.7725   -9.8307 C   0  0  0  0  0  0  0  0  0  0  0  0
   25.3446   -0.7002   -9.3566 C   0  0  0  0  0  0  0  0  0  0  0  0
  1  2  3  0
  2  3  1  0
  3  4  2  0
  4  5  1  0
  5  6  1  0
  5  7  2  0
  7  8  1  0
  8  9  1  0
  9 10  1  0
 10 11  2  0
 11 12  1  0
 12 13  2  0
 13 14  1  0
 14 15  2  0
 14 16  1  0
 17 16  1  6
 17 18  1  0
  8 19  2  0
 19  3  1  0
 15 10  1  0
 18 13  1  1
M  END
$$$$
