_rank1
     RDKit          3D

 19 21  0  0  0  0  0  0  0  0999 V2000
   18.4932    2.0772   -9.1412 N   0  0  0  0  0  0  0  0  0  0  0  0
   19.1734    1.2021   -9.4795 C   0  0  0  0  0  0  0  0  0  0  0  0
   20.0245    0.1369   -9.8811 C   0  0  0  0  0  0  0  0  0  0  0  0
   19.6752   -1.1504   -9.5482 C   0  0  0  0  0  0  0  0  0  0  0  0
   20.4832   -2.1953   -9.9263 C   0  0  0  0  0  0  0  0  0  0  0  0
   20.1405   -3.4464   -9.6009 F   0  0  0  0  0  0  0  0  0  0  0  0
   21.6410   -1.9295  -10.6397 C   0  0  0  0  0  0  0  0  0  0  0  0
   22.0142   -0.6507  -10.9859 C   0  0  0  0  0  0  0  0  0  0  0  0
   23.1888   -0.4771  -11.7004 O   0  0  0  0  0  0  0  0  0  0  0  0
   24.4182   -0.4782  -11.0464 C   0  0  0  0  0  0  0  0  0  0  0  0
   25.5616   -0.1782  -11.7594 C   0  0  0  0  0  0  0  0  0  0  0  0
   26.7940   -0.1721  -11.1359 C   0  0  0  0  0  0  0  0  0  0  0  0
   26.9107   -0.4649   -9.7887 C   0  0  0  0  0  0  0  0  0  0  0  0
   25.7685   -0.7641   -9.0779 C   0  0  0  0  0  0  0  0  0  0  0  0
   24.5353   -0.7698   -9.7043 C   0  0  0  0  0  0  0  0  0  0  0  0
   26.1145   -1.0276   -7.7375 O   0  0  0  0  0  0  0  0  0  0  0  0
   27.3441   -0.3216   -7.5057 C   0  0  0  0  0  0  0  0  0  0  0  0
   28.0327   -0.5485   -8.8339 C   0  0  0  0  0  0  0  0  0  0  0  0
   21.1968    0.3862  -10.6015 C   0  0  0  0  0  0  0  0  0  0  0  0
  1  2  3  0
  2  3  1  0
  3  4  2  0
  4  5  1  0
  5  6  1  0
  5  7  2  0
  7  8  1  0
  8  9  1  0
  9 10  1  0
 10 11  2  0
 11 12  1  0
 12 13  2  0
 13 14  1  0
 14 15  2  0
 14 16  1  0
 17 16  1  6
 17 18  1  0
  8 19  2  0
 19  3  1  0
 15 10  1  0
 18 13  1  1
M  END
$$$$
