_rank3
     RDKit          3D

 19 21  0  0  0  0  0  0  0  0999 V2000
   20.1486   -3.7029   -7.9052 N   0  0  0  0  0  0  0  0  0  0  0  0
   20.3609   -2.7914   -8.5886 C   0  0  0  0  0  0  0  0  0  0  0  0
   20.6438   -1.6778   -9.4254 C   0  0  0  0  0  0  0  0  0  0  0  0
   19.7299   -0.6532   -9.4944 C   0  0  0  0  0  0  0  0  0  0  0  0
   19.9829    0.4329  -10.2970 C   0  0  0  0  0  0  0  0  0  0  0  0
   19.0918    1.4280  -10.3619 F   0  0  0  0  0  0  0  0  0  0  0  0
   21.1611    0.4743  -11.0252 C   0  0  0  0  0  0  0  0  0  0  0  0
   22.0928   -0.5375  -10.9745 C   0  0  0  0  0  0  0  0  0  0  0  0
   23.2437   -0.4130  -11.7363 O   0  0  0  0  0  0  0  0  0  0  0  0
   24.4969   -0.4454  -11.1302 C   0  0  0  0  0  0  0  0  0  0  0  0
   25.6251   -0.2586  -11.9035 C   0  0  0  0  0  0  0  0  0  0  0  0
   26.8805   -0.2859  -11.3285 C   0  0  0  0  0  0  0  0  0  0  0  0
   27.0359   -0.5001   -9.9704 C   0  0  0  0  0  0  0  0  0  0  0  0
   25.9089   -0.6865   -9.1993 C   0  0  0  0  0  0  0  0  0  0  0  0
   24.6526   -0.6588   -9.7773 C   0  0  0  0  0  0  0  0  0  0  0  0
   26.2945   -0.8854   -7.8586 O   0  0  0  0  0  0  0  0  0  0  0  0
   27.5704   -0.2399   -7.7194 C   0  0  0  0  0  0  0  0  0  0  0  0
   28.1899   -0.5897   -9.0549 C   0  0  0  0  0  0  0  0  0  0  0  0
   21.8275   -1.6189  -10.1675 C   0  0  0  0  0  0  0  0  0  0  0  0
  1  2  3  0
  2  3  1  0
  3  4  2  0
  4  5  1  0
  5  6  1  0
  5  7  2  0
  7  8  1  0
  8  9  1  0
  9 10  1  0
 10 11  2  0
 11 12  1  0
 12 13  2  0
 13 14  1  0
 14 15  2  0
 14 16  1  0
 17 16  1  6
 17 18  1  0
  8 19  2  0
 19  3  1  0
 15 10  1  0
 18 13  1  1
M  END
$$$$
