_rank13
     RDKit          3D

 20 22  0  0  0  0  0  0  0  0999 V2000
   18.2670    1.5186   -9.7764 C   0  0  0  0  0  0  0  0  0  0  0  0
   19.7576    1.6756   -9.4745 C   0  0  1  0  0  0  0  0  0  0  0  0
   19.9708    1.1913   -8.0564 C   0  0  0  0  0  0  0  0  0  0  0  0
   20.5132    0.8394  -10.4676 C   0  0  0  0  0  0  0  0  0  0  0  0
   21.4134   -0.1899   -9.8188 C   0  0  2  0  0  0  0  0  0  0  0  0
   22.8201    0.3026   -9.9208 C   0  0  0  0  0  0  0  0  0  0  0  0
   23.6096   -0.1392  -11.0738 C   0  0  1  0  0  0  0  0  0  0  0  0
   25.0711   -0.2794  -10.7951 C   0  0  0  0  0  0  0  0  0  0  0  0
   25.9884    0.1718  -11.7229 C   0  0  0  0  0  0  0  0  0  0  0  0
   27.3648    0.0589  -11.4996 C   0  0  0  0  0  0  0  0  0  0  0  0
   27.8279   -0.5114  -10.3361 C   0  0  0  0  0  0  0  0  0  0  0  0
   26.9191   -0.9724   -9.3882 C   0  0  0  0  0  0  0  0  0  0  0  0
   27.5420   -1.7706   -7.7594 Br  0  0  0  0  0  0  0  0  0  0  0  0
   25.5648   -0.8425   -9.6465 C   0  0  0  0  0  0  0  0  0  0  0  0
   23.1843   -1.3725  -11.6906 N   0  0  0  0  0  0  0  0  0  0  0  0
   22.0502   -2.0583  -11.2215 C   0  0  0  0  0  0  0  0  0  0  0  0
   21.5955   -3.2860  -11.5150 N   0  0  0  0  0  0  0  0  0  0  0  0
   20.5044   -3.4773  -10.8267 N   0  0  0  0  0  0  0  0  0  0  0  0
   20.2638   -2.4075  -10.1129 N   0  0  0  0  0  0  0  0  0  0  0  0
   21.2020   -1.5125  -10.3355 N   0  0  0  0  0  0  0  0  0  0  0  0
  2  1  1  6
  3  2  1  6
  2  4  1  0
  4  5  1  6
  5  6  1  0
  6  7  1  6
  7  8  1  1
  8  9  2  0
  9 10  1  0
 10 11  2  0
 11 12  1  0
 12 13  1  0
 12 14  2  0
  7 15  1  0
 15 16  1  0
 16 17  2  0
 17 18  1  0
 18 19  2  0
 19 20  1  0
  5 20  1  6
 14  8  1  0
 20 16  1  0
M  END
$$$$
