_rank13
     RDKit          3D

 23 26  0  0  0  0  0  0  0  0999 V2000
   19.3621    1.6473   -8.7288 Br  0  0  0  0  0  0  0  0  0  0  0  0
   19.7627    0.2801  -10.0073 C   0  0  0  0  0  0  0  0  0  0  0  0
   18.7819   -0.1694  -10.8555 C   0  0  0  0  0  0  0  0  0  0  0  0
   19.0972   -1.1446  -11.7561 C   0  0  0  0  0  0  0  0  0  0  0  0
   20.3810   -1.6497  -11.7917 C   0  0  0  0  0  0  0  0  0  0  0  0
   21.3832   -1.2168  -10.9526 C   0  0  0  0  0  0  0  0  0  0  0  0
   22.7709   -1.7627  -10.9911 C   0  0  2  0  0  0  0  0  0  0  0  0
   23.6106   -0.9673  -10.0075 C   0  0  0  0  0  0  0  0  0  0  0  0
   25.0643   -1.0341  -10.4292 C   0  0  2  0  0  0  0  0  0  0  0  0
   25.9669   -0.4950   -9.3945 C   0  0  0  0  0  0  0  0  0  0  0  0
   25.4902   -0.0583   -8.1733 C   0  0  0  0  0  0  0  0  0  0  0  0
   26.3990    0.4399   -7.2419 C   0  0  0  0  0  0  0  0  0  0  0  0
   27.7394    0.4868   -7.5532 C   0  0  0  0  0  0  0  0  0  0  0  0
   28.2144    0.0464   -8.7829 C   0  0  0  0  0  0  0  0  0  0  0  0
   27.3157   -0.4440   -9.6986 C   0  0  0  0  0  0  0  0  0  0  0  0
   27.9673   -1.0556  -11.4037 Br  0  0  0  0  0  0  0  0  0  0  0  0
   25.1830   -0.2589  -11.6490 N   0  0  0  0  0  0  0  0  0  0  0  0
   25.9781    0.6837  -12.1089 N   0  0  0  0  0  0  0  0  0  0  0  0
   25.5950    1.0215  -13.3246 N   0  0  0  0  0  0  0  0  0  0  0  0
   24.5454    0.2831  -13.6355 N   0  0  0  0  0  0  0  0  0  0  0  0
   24.2742   -0.5229  -12.5994 C   0  0  0  0  0  0  0  0  0  0  0  0
   23.2916   -1.5262  -12.3228 N   0  0  0  0  0  0  0  0  0  0  0  0
   21.0578   -0.2320  -10.0458 C   0  0  0  0  0  0  0  0  0  0  0  0
  1  2  1  0
  2  3  2  0
  3  4  1  0
  4  5  2  0
  5  6  1  0
  7  6  1  6
  8  7  1  1
  8  9  1  0
  9 10  1  1
 10 11  2  0
 11 12  1  0
 12 13  2  0
 13 14  1  0
 14 15  2  0
 15 16  1  0
  9 17  1  0
 17 18  1  0
 18 19  2  0
 19 20  1  0
 20 21  2  0
 21 22  1  0
  6 23  2  0
 23  2  1  0
 22  7  1  0
 15 10  1  0
 21 17  1  0
M  END
$$$$
