_rank18
     RDKit          3D

 20 22  0  0  0  0  0  0  0  0999 V2000
   28.1781   -1.7134  -11.1929 C   0  0  0  0  0  0  0  0  0  0  0  0
   27.5349   -0.3413  -11.3969 C   0  0  1  0  0  0  0  0  0  0  0  0
   28.2818    0.3287  -12.5302 C   0  0  0  0  0  0  0  0  0  0  0  0
   26.0889   -0.5632  -11.7378 C   0  0  0  0  0  0  0  0  0  0  0  0
   25.3156   -1.2563  -10.6367 C   0  0  2  0  0  0  0  0  0  0  0  0
   23.8924   -1.3677  -11.0769 C   0  0  0  0  0  0  0  0  0  0  0  0
   22.9734   -0.3005  -10.6715 C   0  0  1  0  0  0  0  0  0  0  0  0
   21.5663   -0.7558  -10.4561 C   0  0  0  0  0  0  0  0  0  0  0  0
   21.0063   -0.6675   -9.1974 C   0  0  0  0  0  0  0  0  0  0  0  0
   19.6927   -1.0830   -8.9547 C   0  0  0  0  0  0  0  0  0  0  0  0
   18.9319   -1.5920   -9.9820 C   0  0  0  0  0  0  0  0  0  0  0  0
   19.4783   -1.6892  -11.2584 C   0  0  0  0  0  0  0  0  0  0  0  0
   18.4362   -2.3954  -12.7052 Br  0  0  0  0  0  0  0  0  0  0  0  0
   20.7821   -1.2673  -11.4579 C   0  0  0  0  0  0  0  0  0  0  0  0
   23.3540    0.4426   -9.4946 N   0  0  0  0  0  0  0  0  0  0  0  0
   24.5616    0.1679   -8.8291 C   0  0  0  0  0  0  0  0  0  0  0  0
   25.0137    0.5944   -7.6401 N   0  0  0  0  0  0  0  0  0  0  0  0
   26.1912    0.0660   -7.4533 N   0  0  0  0  0  0  0  0  0  0  0  0
   26.4884   -0.6770   -8.4885 N   0  0  0  0  0  0  0  0  0  0  0  0
   25.5004   -0.6342   -9.3562 N   0  0  0  0  0  0  0  0  0  0  0  0
  2  1  1  6
  3  2  1  6
  2  4  1  0
  4  5  1  6
  5  6  1  0
  6  7  1  6
  7  8  1  1
  8  9  2  0
  9 10  1  0
 10 11  2  0
 11 12  1  0
 12 13  1  0
 12 14  2  0
  7 15  1  0
 15 16  1  0
 16 17  2  0
 17 18  1  0
 18 19  2  0
 19 20  1  0
  5 20  1  1
 14  8  1  0
 20 16  1  0
M  END
$$$$
