_rank2
     RDKit          3D

 20 22  0  0  0  0  0  0  0  0999 V2000
   28.2482   -0.7760  -10.1472 C   0  0  0  0  0  0  0  0  0  0  0  0
   27.4027   -1.2077   -8.9487 C   0  0  1  0  0  0  0  0  0  0  0  0
   27.4050   -0.0517   -7.9716 C   0  0  0  0  0  0  0  0  0  0  0  0
   26.0197   -1.5078   -9.4524 C   0  0  0  0  0  0  0  0  0  0  0  0
   25.1586   -0.2724   -9.6041 C   0  0  2  0  0  0  0  0  0  0  0  0
   23.7300   -0.6923   -9.4843 C   0  0  0  0  0  0  0  0  0  0  0  0
   23.0114   -1.0073  -10.7221 C   0  0  1  0  0  0  0  0  0  0  0  0
   21.5514   -0.6913  -10.6776 C   0  0  0  0  0  0  0  0  0  0  0  0
   21.1382    0.5705  -10.2996 C   0  0  0  0  0  0  0  0  0  0  0  0
   19.7811    0.9058  -10.2452 C   0  0  0  0  0  0  0  0  0  0  0  0
   18.8279   -0.0311  -10.5724 C   0  0  0  0  0  0  0  0  0  0  0  0
   19.2243   -1.3090  -10.9560 C   0  0  0  0  0  0  0  0  0  0  0  0
   17.9131   -2.6306  -11.4163 Br  0  0  0  0  0  0  0  0  0  0  0  0
   20.5772   -1.6016  -10.9972 C   0  0  0  0  0  0  0  0  0  0  0  0
   23.5316   -0.3984  -11.9225 N   0  0  0  0  0  0  0  0  0  0  0  0
   24.6861    0.4028  -11.8812 C   0  0  0  0  0  0  0  0  0  0  0  0
   25.2233    1.1997  -12.8173 N   0  0  0  0  0  0  0  0  0  0  0  0
   26.2976    1.7366  -12.3089 N   0  0  0  0  0  0  0  0  0  0  0  0
   26.4478    1.2998  -11.0847 N   0  0  0  0  0  0  0  0  0  0  0  0
   25.4670    0.4734  -10.7914 N   0  0  0  0  0  0  0  0  0  0  0  0
  2  1  1  6
  3  2  1  6
  2  4  1  0
  4  5  1  6
  5  6  1  0
  6  7  1  6
  7  8  1  1
  8  9  2  0
  9 10  1  0
 10 11  2  0
 11 12  1  0
 12 13  1  0
 12 14  2  0
  7 15  1  0
 15 16  1  0
 16 17  2  0
 17 18  1  0
 18 19  2  0
 19 20  1  0
  5 20  1  6
 14  8  1  0
 20 16  1  0
M  END
$$$$
