_rank10
     RDKit          3D

 23 26  0  0  0  0  0  0  0  0999 V2000
   18.7102    1.7411  -11.5198 Br  0  0  0  0  0  0  0  0  0  0  0  0
   19.5970    0.2892  -10.6423 C   0  0  0  0  0  0  0  0  0  0  0  0
   18.9664   -0.3795   -9.6231 C   0  0  0  0  0  0  0  0  0  0  0  0
   19.6234   -1.4101   -9.0167 C   0  0  0  0  0  0  0  0  0  0  0  0
   20.8923   -1.7513   -9.4385 C   0  0  0  0  0  0  0  0  0  0  0  0
   21.5474   -1.0973  -10.4579 C   0  0  0  0  0  0  0  0  0  0  0  0
   22.9189   -1.4660  -10.9140 C   0  0  2  0  0  0  0  0  0  0  0  0
   23.8942   -1.0731   -9.8187 C   0  0  0  0  0  0  0  0  0  0  0  0
   25.2613   -0.8448  -10.4307 C   0  0  2  0  0  0  0  0  0  0  0  0
   26.3110   -0.7008   -9.4042 C   0  0  0  0  0  0  0  0  0  0  0  0
   26.0269   -0.2215   -8.1398 C   0  0  0  0  0  0  0  0  0  0  0  0
   27.0670   -0.1108   -7.2192 C   0  0  0  0  0  0  0  0  0  0  0  0
   28.3433   -0.4771   -7.5835 C   0  0  0  0  0  0  0  0  0  0  0  0
   28.6243   -0.9587   -8.8565 C   0  0  0  0  0  0  0  0  0  0  0  0
   27.5966   -1.0665   -9.7614 C   0  0  0  0  0  0  0  0  0  0  0  0
   27.9794   -1.7329  -11.5264 Br  0  0  0  0  0  0  0  0  0  0  0  0
   25.1687    0.3656  -11.2239 N   0  0  0  0  0  0  0  0  0  0  0  0
   25.8639    1.4749  -11.3598 N   0  0  0  0  0  0  0  0  0  0  0  0
   25.2837    2.2447  -12.2595 N   0  0  0  0  0  0  0  0  0  0  0  0
   24.2094    1.6136  -12.6966 N   0  0  0  0  0  0  0  0  0  0  0  0
   24.1222    0.4373  -12.0598 C   0  0  0  0  0  0  0  0  0  0  0  0
   23.2133   -0.6680  -12.0875 N   0  0  0  0  0  0  0  0  0  0  0  0
   20.8781   -0.0577  -11.0657 C   0  0  0  0  0  0  0  0  0  0  0  0
  1  2  1  0
  2  3  2  0
  3  4  1  0
  4  5  2  0
  5  6  1  0
  7  6  1  1
  8  7  1  1
  8  9  1  0
  9 10  1  1
 10 11  2  0
 11 12  1  0
 12 13  2  0
 13 14  1  0
 14 15  2  0
 15 16  1  0
  9 17  1  0
 17 18  1  0
 18 19  2  0
 19 20  1  0
 20 21  2  0
 21 22  1  0
  6 23  2  0
 23  2  1  0
 22  7  1  0
 15 10  1  0
 21 17  1  0
M  END
$$$$
