_rank16
     RDKit          3D

 23 26  0  0  0  0  0  0  0  0999 V2000
   18.0831    0.3301   -8.1828 Br  0  0  0  0  0  0  0  0  0  0  0  0
   19.4172    0.4127   -9.5531 C   0  0  0  0  0  0  0  0  0  0  0  0
   19.2955    1.3267  -10.5697 C   0  0  0  0  0  0  0  0  0  0  0  0
   20.2620    1.3621  -11.5320 C   0  0  0  0  0  0  0  0  0  0  0  0
   21.3270    0.4875  -11.4604 C   0  0  0  0  0  0  0  0  0  0  0  0
   21.4734   -0.4387  -10.4520 C   0  0  0  0  0  0  0  0  0  0  0  0
   22.6245   -1.3840  -10.3744 C   0  0  2  0  0  0  0  0  0  0  0  0
   23.7619   -0.6740   -9.6621 C   0  0  0  0  0  0  0  0  0  0  0  0
   25.0769   -1.2968  -10.0843 C   0  0  2  0  0  0  0  0  0  0  0  0
   26.2035   -0.8285   -9.2550 C   0  0  0  0  0  0  0  0  0  0  0  0
   26.9611   -1.7040   -8.5009 C   0  0  0  0  0  0  0  0  0  0  0  0
   28.0107   -1.1932   -7.7401 C   0  0  0  0  0  0  0  0  0  0  0  0
   28.2696    0.1590   -7.7544 C   0  0  0  0  0  0  0  0  0  0  0  0
   27.5049    1.0360   -8.5144 C   0  0  0  0  0  0  0  0  0  0  0  0
   26.4710    0.5290   -9.2632 C   0  0  0  0  0  0  0  0  0  0  0  0
   25.4080    1.7385  -10.3182 Br  0  0  0  0  0  0  0  0  0  0  0  0
   25.2897   -0.9277  -11.4704 N   0  0  0  0  0  0  0  0  0  0  0  0
   26.2748   -0.4284  -12.1863 N   0  0  0  0  0  0  0  0  0  0  0  0
   25.8820   -0.3015  -13.4386 N   0  0  0  0  0  0  0  0  0  0  0  0
   24.6339   -0.7259  -13.5139 N   0  0  0  0  0  0  0  0  0  0  0  0
   24.2477   -1.1210  -12.2926 C   0  0  0  0  0  0  0  0  0  0  0  0
   23.0472   -1.6627  -11.7325 N   0  0  0  0  0  0  0  0  0  0  0  0
   20.4937   -0.4689   -9.4837 C   0  0  0  0  0  0  0  0  0  0  0  0
  1  2  1  0
  2  3  2  0
  3  4  1  0
  4  5  2  0
  5  6  1  0
  7  6  1  6
  8  7  1  1
  8  9  1  0
  9 10  1  1
 10 11  2  0
 11 12  1  0
 12 13  2  0
 13 14  1  0
 14 15  2  0
 15 16  1  0
  9 17  1  0
 17 18  1  0
 18 19  2  0
 19 20  1  0
 20 21  2  0
 21 22  1  0
  6 23  2  0
 23  2  1  0
 22  7  1  0
 15 10  1  0
 21 17  1  0
M  END
$$$$
