_rank15
     RDKit          3D

 20 22  0  0  0  0  0  0  0  0999 V2000
   25.0403   -1.3729  -13.2222 C   0  0  0  0  0  0  0  0  0  0  0  0
   26.1612   -0.7330  -12.4025 C   0  0  1  0  0  0  0  0  0  0  0  0
   25.6279    0.5859  -11.8856 C   0  0  0  0  0  0  0  0  0  0  0  0
   26.4992   -1.6742  -11.2817 C   0  0  0  0  0  0  0  0  0  0  0  0
   25.6301   -1.4813  -10.0577 C   0  0  2  0  0  0  0  0  0  0  0  0
   24.2383   -1.2028  -10.5235 C   0  0  0  0  0  0  0  0  0  0  0  0
   23.8461    0.2004  -10.6820 C   0  0  1  0  0  0  0  0  0  0  0  0
   22.4006    0.4647  -10.4094 C   0  0  0  0  0  0  0  0  0  0  0  0
   21.9396    1.7655  -10.3776 C   0  0  0  0  0  0  0  0  0  0  0  0
   20.5943    2.0547  -10.1259 C   0  0  0  0  0  0  0  0  0  0  0  0
   19.7012    1.0317   -9.9038 C   0  0  0  0  0  0  0  0  0  0  0  0
   20.1464   -0.2867   -9.9317 C   0  0  0  0  0  0  0  0  0  0  0  0
   18.9193   -1.7283   -9.6248 Br  0  0  0  0  0  0  0  0  0  0  0  0
   21.4858   -0.5315  -10.1842 C   0  0  0  0  0  0  0  0  0  0  0  0
   24.5969    1.1543   -9.9018 N   0  0  0  0  0  0  0  0  0  0  0  0
   25.6640    0.7370   -9.0870 C   0  0  0  0  0  0  0  0  0  0  0  0
   26.3594    1.4083   -8.1565 N   0  0  0  0  0  0  0  0  0  0  0  0
   27.2544    0.5942   -7.6696 N   0  0  0  0  0  0  0  0  0  0  0  0
   27.1394   -0.5642   -8.2670 N   0  0  0  0  0  0  0  0  0  0  0  0
   26.1646   -0.5072   -9.1487 N   0  0  0  0  0  0  0  0  0  0  0  0
  2  1  1  6
  3  2  1  6
  2  4  1  0
  4  5  1  6
  5  6  1  0
  6  7  1  6
  7  8  1  1
  8  9  2  0
  9 10  1  0
 10 11  2  0
 11 12  1  0
 12 13  1  0
 12 14  2  0
  7 15  1  0
 15 16  1  0
 16 17  2  0
 17 18  1  0
 18 19  2  0
 19 20  1  0
  5 20  1  6
 14  8  1  0
 20 16  1  0
M  END
$$$$
