_rank8
     RDKit          3D

 20 22  0  0  0  0  0  0  0  0999 V2000
   18.2539    1.6797  -10.0678 C   0  0  0  0  0  0  0  0  0  0  0  0
   19.1195    0.6243   -9.3787 C   0  0  1  0  0  0  0  0  0  0  0  0
   18.4336   -0.7089   -9.5867 C   0  0  0  0  0  0  0  0  0  0  0  0
   20.4764    0.6584  -10.0221 C   0  0  0  0  0  0  0  0  0  0  0  0
   21.2856   -0.5966   -9.7755 C   0  0  2  0  0  0  0  0  0  0  0  0
   22.6147   -0.1850   -9.2316 C   0  0  0  0  0  0  0  0  0  0  0  0
   23.7093    0.0000  -10.1884 C   0  0  1  0  0  0  0  0  0  0  0  0
   25.0606   -0.3285   -9.6411 C   0  0  0  0  0  0  0  0  0  0  0  0
   25.3204   -1.6065   -9.1884 C   0  0  0  0  0  0  0  0  0  0  0  0
   26.5721   -1.9539   -8.6690 C   0  0  0  0  0  0  0  0  0  0  0  0
   27.5738   -1.0128   -8.6020 C   0  0  0  0  0  0  0  0  0  0  0  0
   27.3315    0.2813   -9.0535 C   0  0  0  0  0  0  0  0  0  0  0  0
   28.7129    1.6090   -8.9697 Br  0  0  0  0  0  0  0  0  0  0  0  0
   26.0794    0.5856   -9.5606 C   0  0  0  0  0  0  0  0  0  0  0  0
   23.5812   -0.7151  -11.4351 N   0  0  0  0  0  0  0  0  0  0  0  0
   22.4422   -1.4941  -11.7045 C   0  0  0  0  0  0  0  0  0  0  0  0
   22.2040   -2.3707  -12.6918 N   0  0  0  0  0  0  0  0  0  0  0  0
   21.0007   -2.8426  -12.5183 N   0  0  0  0  0  0  0  0  0  0  0  0
   20.4802   -2.2880  -11.4537 N   0  0  0  0  0  0  0  0  0  0  0  0
   21.3474   -1.4494  -10.9286 N   0  0  0  0  0  0  0  0  0  0  0  0
  2  1  1  6
  3  2  1  6
  2  4  1  0
  4  5  1  6
  5  6  1  0
  6  7  1  6
  7  8  1  1
  8  9  2  0
  9 10  1  0
 10 11  2  0
 11 12  1  0
 12 13  1  0
 12 14  2  0
  7 15  1  0
 15 16  1  0
 16 17  2  0
 17 18  1  0
 18 19  2  0
 19 20  1  0
  5 20  1  6
 14  8  1  0
 20 16  1  0
M  END
$$$$
