_rank11
     RDKit          3D

 20 22  0  0  0  0  0  0  0  0999 V2000
   18.8708   -0.5150   -9.5327 C   0  0  0  0  0  0  0  0  0  0  0  0
   20.1400   -1.2958   -9.8751 C   0  0  1  0  0  0  0  0  0  0  0  0
   19.7340   -2.3921  -10.8367 C   0  0  0  0  0  0  0  0  0  0  0  0
   21.1092   -0.3354  -10.5034 C   0  0  0  0  0  0  0  0  0  0  0  0
   22.3103   -1.0182  -11.1213 C   0  0  2  0  0  0  0  0  0  0  0  0
   23.3837   -1.0836  -10.0843 C   0  0  0  0  0  0  0  0  0  0  0  0
   24.3644    0.0051  -10.0564 C   0  0  1  0  0  0  0  0  0  0  0  0
   25.7264   -0.4118   -9.6037 C   0  0  0  0  0  0  0  0  0  0  0  0
   26.4379   -1.3348  -10.3437 C   0  0  0  0  0  0  0  0  0  0  0  0
   27.7153   -1.7508   -9.9538 C   0  0  0  0  0  0  0  0  0  0  0  0
   28.2865   -1.2381   -8.8117 C   0  0  0  0  0  0  0  0  0  0  0  0
   27.5852   -0.3064   -8.0519 C   0  0  0  0  0  0  0  0  0  0  0  0
   28.3618    0.4216   -6.4566 Br  0  0  0  0  0  0  0  0  0  0  0  0
   26.3233    0.0799   -8.4714 C   0  0  0  0  0  0  0  0  0  0  0  0
   24.5406    0.7237  -11.2952 N   0  0  0  0  0  0  0  0  0  0  0  0
   23.7693    0.4067  -12.4272 C   0  0  0  0  0  0  0  0  0  0  0  0
   23.8937    0.8066  -13.7018 N   0  0  0  0  0  0  0  0  0  0  0  0
   22.9383    0.2424  -14.3871 N   0  0  0  0  0  0  0  0  0  0  0  0
   22.2215   -0.4972  -13.5803 N   0  0  0  0  0  0  0  0  0  0  0  0
   22.7105   -0.4161  -12.3615 N   0  0  0  0  0  0  0  0  0  0  0  0
  2  1  1  6
  3  2  1  6
  2  4  1  0
  4  5  1  6
  5  6  1  0
  6  7  1  6
  7  8  1  6
  8  9  2  0
  9 10  1  0
 10 11  2  0
 11 12  1  0
 12 13  1  0
 12 14  2  0
  7 15  1  0
 15 16  1  0
 16 17  2  0
 17 18  1  0
 18 19  2  0
 19 20  1  0
  5 20  1  6
 14  8  1  0
 20 16  1  0
M  END
$$$$
