_rank17
     RDKit          3D

 20 22  0  0  0  0  0  0  0  0999 V2000
   28.4226   -1.4208  -11.2432 C   0  0  0  0  0  0  0  0  0  0  0  0
   27.1220   -0.6189  -11.2998 C   0  0  1  0  0  0  0  0  0  0  0  0
   27.2094    0.2722  -12.5202 C   0  0  0  0  0  0  0  0  0  0  0  0
   25.9882   -1.5984  -11.4061 C   0  0  0  0  0  0  0  0  0  0  0  0
   25.0485   -1.5547  -10.2205 C   0  0  2  0  0  0  0  0  0  0  0  0
   23.6507   -1.5064  -10.7454 C   0  0  0  0  0  0  0  0  0  0  0  0
   23.0409   -0.1860  -10.9253 C   0  0  1  0  0  0  0  0  0  0  0  0
   21.5615   -0.1631  -10.7148 C   0  0  0  0  0  0  0  0  0  0  0  0
   20.9930    0.8587   -9.9808 C   0  0  0  0  0  0  0  0  0  0  0  0
   19.6127    0.9160   -9.7612 C   0  0  0  0  0  0  0  0  0  0  0  0
   18.7928   -0.0591  -10.2813 C   0  0  0  0  0  0  0  0  0  0  0  0
   19.3466   -1.0976  -11.0242 C   0  0  0  0  0  0  0  0  0  0  0  0
   18.2231   -2.4674  -11.7586 Br  0  0  0  0  0  0  0  0  0  0  0  0
   20.7175   -1.1187  -11.2192 C   0  0  0  0  0  0  0  0  0  0  0  0
   23.5916    0.8754  -10.1176 N   0  0  0  0  0  0  0  0  0  0  0  0
   24.6774    0.6359   -9.2572 C   0  0  0  0  0  0  0  0  0  0  0  0
   25.2137    1.4090   -8.3007 N   0  0  0  0  0  0  0  0  0  0  0  0
   26.2087    0.7510   -7.7736 N   0  0  0  0  0  0  0  0  0  0  0  0
   26.3103   -0.4086   -8.3711 N   0  0  0  0  0  0  0  0  0  0  0  0
   25.3774   -0.5092   -9.2933 N   0  0  0  0  0  0  0  0  0  0  0  0
  2  1  1  6
  3  2  1  6
  2  4  1  0
  4  5  1  6
  5  6  1  0
  6  7  1  6
  7  8  1  1
  8  9  2  0
  9 10  1  0
 10 11  2  0
 11 12  1  0
 12 13  1  0
 12 14  2  0
  7 15  1  0
 15 16  1  0
 16 17  2  0
 17 18  1  0
 18 19  2  0
 19 20  1  0
  5 20  1  6
 14  8  1  0
 20 16  1  0
M  END
$$$$
