_rank4
     RDKit          3D

 23 26  0  0  0  0  0  0  0  0999 V2000
   19.1225    1.8685  -11.1982 Br  0  0  0  0  0  0  0  0  0  0  0  0
   19.8880    0.1892  -10.6899 C   0  0  0  0  0  0  0  0  0  0  0  0
   19.1351   -0.7198   -9.9897 C   0  0  0  0  0  0  0  0  0  0  0  0
   19.7078   -1.9082   -9.6414 C   0  0  0  0  0  0  0  0  0  0  0  0
   21.0161   -2.1643   -9.9978 C   0  0  0  0  0  0  0  0  0  0  0  0
   21.7933   -1.2703  -10.6998 C   0  0  0  0  0  0  0  0  0  0  0  0
   23.2074   -1.5471  -11.0852 C   0  0  2  0  0  0  0  0  0  0  0  0
   24.1012   -1.0452   -9.9652 C   0  0  0  0  0  0  0  0  0  0  0  0
   25.4728   -0.7324  -10.5278 C   0  0  2  0  0  0  0  0  0  0  0  0
   26.4624   -0.4751   -9.4645 C   0  0  0  0  0  0  0  0  0  0  0  0
   26.5498    0.7533   -8.8379 C   0  0  0  0  0  0  0  0  0  0  0  0
   27.5084    0.9273   -7.8418 C   0  0  0  0  0  0  0  0  0  0  0  0
   28.3405   -0.1166   -7.5050 C   0  0  0  0  0  0  0  0  0  0  0  0
   28.2491   -1.3505   -8.1379 C   0  0  0  0  0  0  0  0  0  0  0  0
   27.3030   -1.5185   -9.1194 C   0  0  0  0  0  0  0  0  0  0  0  0
   27.1712   -3.2253  -10.0000 Br  0  0  0  0  0  0  0  0  0  0  0  0
   25.3242    0.4410  -11.3666 N   0  0  0  0  0  0  0  0  0  0  0  0
   25.9391    1.5955  -11.5130 N   0  0  0  0  0  0  0  0  0  0  0  0
   25.3427    2.2890  -12.4628 N   0  0  0  0  0  0  0  0  0  0  0  0
   24.3393    1.5634  -12.9213 N   0  0  0  0  0  0  0  0  0  0  0  0
   24.3131    0.4051  -12.2472 C   0  0  0  0  0  0  0  0  0  0  0  0
   23.4922   -0.7671  -12.2732 N   0  0  0  0  0  0  0  0  0  0  0  0
   21.2086   -0.0725  -11.0482 C   0  0  0  0  0  0  0  0  0  0  0  0
  1  2  1  0
  2  3  2  0
  3  4  1  0
  4  5  2  0
  5  6  1  0
  7  6  1  1
  8  7  1  1
  8  9  1  0
  9 10  1  1
 10 11  2  0
 11 12  1  0
 12 13  2  0
 13 14  1  0
 14 15  2  0
 15 16  1  0
  9 17  1  0
 17 18  1  0
 18 19  2  0
 19 20  1  0
 20 21  2  0
 21 22  1  0
  6 23  2  0
 23  2  1  0
 22  7  1  0
 15 10  1  0
 21 17  1  0
M  END
$$$$
