_rank7
     RDKit          3D

 23 26  0  0  0  0  0  0  0  0999 V2000
   19.0184    2.2268  -10.5253 Br  0  0  0  0  0  0  0  0  0  0  0  0
   19.6181    0.4113  -10.4326 C   0  0  0  0  0  0  0  0  0  0  0  0
   18.7595   -0.5698  -10.0039 C   0  0  0  0  0  0  0  0  0  0  0  0
   19.2154   -1.8546   -9.9484 C   0  0  0  0  0  0  0  0  0  0  0  0
   20.5146   -2.1332  -10.3209 C   0  0  0  0  0  0  0  0  0  0  0  0
   21.3962   -1.1684  -10.7545 C   0  0  0  0  0  0  0  0  0  0  0  0
   22.8005   -1.4694  -11.1571 C   0  0  2  0  0  0  0  0  0  0  0  0
   23.7118   -1.0419  -10.0205 C   0  0  0  0  0  0  0  0  0  0  0  0
   25.0903   -0.7454  -10.5748 C   0  0  2  0  0  0  0  0  0  0  0  0
   26.0901   -0.5625   -9.5056 C   0  0  0  0  0  0  0  0  0  0  0  0
   25.7787    0.0857   -8.3257 C   0  0  0  0  0  0  0  0  0  0  0  0
   26.7719    0.2237   -7.3583 C   0  0  0  0  0  0  0  0  0  0  0  0
   28.0302   -0.2829   -7.5943 C   0  0  0  0  0  0  0  0  0  0  0  0
   28.3389   -0.9341   -8.7826 C   0  0  0  0  0  0  0  0  0  0  0  0
   27.3574   -1.0683   -9.7341 C   0  0  0  0  0  0  0  0  0  0  0  0
   27.7786   -1.9694  -11.3823 Br  0  0  0  0  0  0  0  0  0  0  0  0
   24.9736    0.4666  -11.3624 N   0  0  0  0  0  0  0  0  0  0  0  0
   25.6215    1.6079  -11.4620 N   0  0  0  0  0  0  0  0  0  0  0  0
   25.0429    2.3584  -12.3790 N   0  0  0  0  0  0  0  0  0  0  0  0
   24.0174    1.6824  -12.8638 N   0  0  0  0  0  0  0  0  0  0  0  0
   23.9594    0.4977  -12.2395 C   0  0  0  0  0  0  0  0  0  0  0  0
   23.1045   -0.6480  -12.3120 N   0  0  0  0  0  0  0  0  0  0  0  0
   20.9293    0.1267  -10.8079 C   0  0  0  0  0  0  0  0  0  0  0  0
  1  2  1  0
  2  3  2  0
  3  4  1  0
  4  5  2  0
  5  6  1  0
  7  6  1  1
  8  7  1  1
  8  9  1  0
  9 10  1  1
 10 11  2  0
 11 12  1  0
 12 13  2  0
 13 14  1  0
 14 15  2  0
 15 16  1  0
  9 17  1  0
 17 18  1  0
 18 19  2  0
 19 20  1  0
 20 21  2  0
 21 22  1  0
  6 23  2  0
 23  2  1  0
 22  7  1  0
 15 10  1  0
 21 17  1  0
M  END
$$$$
