_rank8
     RDKit          3D

 23 26  0  0  0  0  0  0  0  0999 V2000
   19.0521    2.2120  -10.1984 Br  0  0  0  0  0  0  0  0  0  0  0  0
   19.7321    0.4295  -10.3549 C   0  0  0  0  0  0  0  0  0  0  0  0
   18.9249   -0.6379  -10.0504 C   0  0  0  0  0  0  0  0  0  0  0  0
   19.4374   -1.8965  -10.1715 C   0  0  0  0  0  0  0  0  0  0  0  0
   20.7408   -2.0638  -10.5927 C   0  0  0  0  0  0  0  0  0  0  0  0
   21.5717   -1.0109  -10.9044 C   0  0  0  0  0  0  0  0  0  0  0  0
   22.9805   -1.1915  -11.3597 C   0  0  2  0  0  0  0  0  0  0  0  0
   23.8912   -0.8985  -10.1808 C   0  0  0  0  0  0  0  0  0  0  0  0
   25.2485   -0.4674  -10.6979 C   0  0  2  0  0  0  0  0  0  0  0  0
   26.2563   -0.4026   -9.6225 C   0  0  0  0  0  0  0  0  0  0  0  0
   26.1450    0.4956   -8.5784 C   0  0  0  0  0  0  0  0  0  0  0  0
   27.1336    0.5029   -7.5966 C   0  0  0  0  0  0  0  0  0  0  0  0
   28.1903   -0.3753   -7.6849 C   0  0  0  0  0  0  0  0  0  0  0  0
   28.2982   -1.2770   -8.7369 C   0  0  0  0  0  0  0  0  0  0  0  0
   27.3219   -1.2815   -9.7031 C   0  0  0  0  0  0  0  0  0  0  0  0
   27.4655   -2.5281  -11.1629 Br  0  0  0  0  0  0  0  0  0  0  0  0
   25.0725    0.8413  -11.2972 N   0  0  0  0  0  0  0  0  0  0  0  0
   25.6735    2.0105  -11.2334 N   0  0  0  0  0  0  0  0  0  0  0  0
   25.0521    2.8630  -12.0245 N   0  0  0  0  0  0  0  0  0  0  0  0
   24.0469    2.2241  -12.5943 N   0  0  0  0  0  0  0  0  0  0  0  0
   24.0448    0.9591  -12.1509 C   0  0  0  0  0  0  0  0  0  0  0  0
   23.2346   -0.1977  -12.3836 N   0  0  0  0  0  0  0  0  0  0  0  0
   21.0477    0.2572  -10.7798 C   0  0  0  0  0  0  0  0  0  0  0  0
  1  2  1  0
  2  3  2  0
  3  4  1  0
  4  5  2  0
  5  6  1  0
  7  6  1  1
  8  7  1  1
  8  9  1  0
  9 10  1  1
 10 11  2  0
 11 12  1  0
 12 13  2  0
 13 14  1  0
 14 15  2  0
 15 16  1  0
  9 17  1  0
 17 18  1  0
 18 19  2  0
 19 20  1  0
 20 21  2  0
 21 22  1  0
  6 23  2  0
 23  2  1  0
 22  7  1  0
 15 10  1  0
 21 17  1  0
M  END
$$$$
