_rank14
     RDKit          3D

 20 21  0  0  0  0  0  0  0  0999 V2000
   25.7594    4.8866  -11.0145 C   0  0  0  0  0  0  0  0  0  0  0  0
   24.8809    3.7266  -10.6865 C   0  0  0  0  0  0  0  0  0  0  0  0
   25.5692    2.6543  -10.1107 O   0  0  0  0  0  0  0  0  0  0  0  0
   25.8118    1.6726  -11.0687 C   0  0  1  0  0  0  0  0  0  0  0  0
   27.1959    1.1249  -10.7956 C   0  0  0  0  0  0  0  0  0  0  0  0
   27.0550   -0.5215  -11.4951 S   0  0  1  0  0  6  0  0  0  0  0  0
   27.8598   -0.6690  -12.7298 O   0  0  0  0  0  0  0  0  0  0  0  0
   27.3188   -1.5695  -10.4776 O   0  0  0  0  0  0  0  0  0  0  0  0
   25.2933   -0.5229  -11.8509 C   0  0  0  0  0  0  0  0  0  0  0  0
   24.8448    0.5337  -10.8296 C   0  0  2  0  0  0  0  0  0  0  0  0
   23.5573    0.9436  -11.0929 O   0  0  0  0  0  0  0  0  0  0  0  0
   22.3752    0.2948  -10.7914 C   0  0  0  0  0  0  0  0  0  0  0  0
   22.2197   -1.0692  -10.9894 C   0  0  0  0  0  0  0  0  0  0  0  0
   21.0411   -1.7186  -10.6892 C   0  0  0  0  0  0  0  0  0  0  0  0
   20.8859   -3.0522  -10.8816 F   0  0  0  0  0  0  0  0  0  0  0  0
   19.9848   -1.0068  -10.1800 C   0  0  0  0  0  0  0  0  0  0  0  0
   20.0986    0.3500   -9.9685 C   0  0  0  0  0  0  0  0  0  0  0  0
   18.9850    1.0925   -9.4330 C   0  0  0  0  0  0  0  0  0  0  0  0
   18.0811    1.6728   -8.9974 N   0  0  0  0  0  0  0  0  0  0  0  0
   21.3020    0.9861  -10.2799 C   0  0  0  0  0  0  0  0  0  0  0  0
  1  2  1  6
  2  3  1  1
  4  3  1  1
  5  4  1  6
  6  5  1  1
  6  7  2  0
  6  8  2  0
  6  9  1  0
  9 10  1  1
 10 11  1  6
 11 12  1  0
 12 13  2  0
 13 14  1  0
 14 15  1  0
 14 16  2  0
 16 17  1  0
 17 18  1  0
 18 19  3  0
 17 20  2  0
 10  4  1  0
 20 12  1  0
M  END
$$$$
