_rank3
     RDKit          3D

 20 21  0  0  0  0  0  0  0  0999 V2000
   28.3125   -0.6966   -7.7151 C   0  0  0  0  0  0  0  0  0  0  0  0
   27.9024   -0.6859   -9.1492 C   0  0  0  0  0  0  0  0  0  0  0  0
   26.5500   -0.3844   -9.3376 O   0  0  0  0  0  0  0  0  0  0  0  0
   26.3990    0.4755  -10.4230 C   0  0  1  0  0  0  0  0  0  0  0  0
   27.5247    0.1683  -11.3867 C   0  0  0  0  0  0  0  0  0  0  0  0
   26.7990    0.7003  -12.9392 S   0  0  1  0  0  6  0  0  0  0  0  0
   27.4473    1.9251  -13.4621 O   0  0  0  0  0  0  0  0  0  0  0  0
   26.7368   -0.4118  -13.9202 O   0  0  0  0  0  0  0  0  0  0  0  0
   25.1278    1.0307  -12.3664 C   0  0  0  0  0  0  0  0  0  0  0  0
   25.1139    0.1125  -11.1346 C   0  0  2  0  0  0  0  0  0  0  0  0
   24.0324    0.3976  -10.3322 O   0  0  0  0  0  0  0  0  0  0  0  0
   22.7269   -0.0325  -10.4725 C   0  0  0  0  0  0  0  0  0  0  0  0
   22.4110   -1.1950  -11.1600 C   0  0  0  0  0  0  0  0  0  0  0  0
   21.1090   -1.6262  -11.3013 C   0  0  0  0  0  0  0  0  0  0  0  0
   20.7968   -2.7625  -11.9729 F   0  0  0  0  0  0  0  0  0  0  0  0
   20.0881   -0.8935  -10.7510 C   0  0  0  0  0  0  0  0  0  0  0  0
   20.3597    0.2674  -10.0604 C   0  0  0  0  0  0  0  0  0  0  0  0
   19.2825    1.0329   -9.4844 C   0  0  0  0  0  0  0  0  0  0  0  0
   18.4107    1.6534   -9.0390 N   0  0  0  0  0  0  0  0  0  0  0  0
   21.6860    0.6842   -9.9302 C   0  0  0  0  0  0  0  0  0  0  0  0
  1  2  1  6
  2  3  1  1
  4  3  1  1
  5  4  1  6
  6  5  1  1
  6  7  2  0
  6  8  2  0
  6  9  1  0
  9 10  1  1
 10 11  1  1
 11 12  1  0
 12 13  2  0
 13 14  1  0
 14 15  1  0
 14 16  2  0
 16 17  1  0
 17 18  1  0
 18 19  3  0
 17 20  2  0
 10  4  1  0
 20 12  1  0
M  END
$$$$
