_rank17
     RDKit          3D

 20 21  0  0  0  0  0  0  0  0999 V2000
   20.2786    1.0850   -9.7763 C   0  0  0  0  0  0  0  0  0  0  0  0
   21.6947    1.0270  -10.2413 C   0  0  0  0  0  0  0  0  0  0  0  0
   22.1503   -0.2747  -10.4721 O   0  0  0  0  0  0  0  0  0  0  0  0
   23.1317   -0.2692  -11.4606 C   0  0  1  0  0  0  0  0  0  0  0  0
   22.7371    0.7916  -12.4654 C   0  0  0  0  0  0  0  0  0  0  0  0
   24.3378    1.2228  -13.1521 S   0  0  1  0  0  6  0  0  0  0  0  0
   24.4827    0.7595  -14.5514 O   0  0  0  0  0  0  0  0  0  0  0  0
   24.6414    2.6632  -12.9620 O   0  0  0  0  0  0  0  0  0  0  0  0
   25.3833    0.2818  -12.0332 C   0  0  0  0  0  0  0  0  0  0  0  0
   24.4279    0.1953  -10.8331 C   0  0  2  0  0  0  0  0  0  0  0  0
   24.8754   -0.7386   -9.9262 O   0  0  0  0  0  0  0  0  0  0  0  0
   26.0533   -0.7329   -9.2040 C   0  0  0  0  0  0  0  0  0  0  0  0
   26.9946    0.2752   -9.3504 C   0  0  0  0  0  0  0  0  0  0  0  0
   28.1707    0.2829   -8.6308 C   0  0  0  0  0  0  0  0  0  0  0  0
   29.0932    1.2673   -8.7716 F   0  0  0  0  0  0  0  0  0  0  0  0
   28.4289   -0.7293   -7.7418 C   0  0  0  0  0  0  0  0  0  0  0  0
   27.5195   -1.7496   -7.5671 C   0  0  0  0  0  0  0  0  0  0  0  0
   27.7967   -2.8105   -6.6312 C   0  0  0  0  0  0  0  0  0  0  0  0
   28.0329   -3.6705   -5.8909 N   0  0  0  0  0  0  0  0  0  0  0  0
   26.3354   -1.7362   -8.3068 C   0  0  0  0  0  0  0  0  0  0  0  0
  1  2  1  6
  2  3  1  1
  4  3  1  1
  5  4  1  6
  6  5  1  1
  6  7  2  0
  6  8  2  0
  6  9  1  0
  9 10  1  1
 10 11  1  1
 11 12  1  0
 12 13  2  0
 13 14  1  0
 14 15  1  0
 14 16  2  0
 16 17  1  0
 17 18  1  0
 18 19  3  0
 17 20  2  0
 10  4  1  0
 20 12  1  0
M  END
$$$$
