_rank13
     RDKit          3D

 20 21  0  0  0  0  0  0  0  0999 V2000
   28.5846   -1.6095   -7.9548 C   0  0  0  0  0  0  0  0  0  0  0  0
   28.0434   -0.7106   -9.0150 C   0  0  0  0  0  0  0  0  0  0  0  0
   26.8210   -1.1430   -9.5385 O   0  0  0  0  0  0  0  0  0  0  0  0
   26.1301   -0.0665  -10.0902 C   0  0  1  0  0  0  0  0  0  0  0  0
   27.1524    0.7940  -10.8006 C   0  0  0  0  0  0  0  0  0  0  0  0
   26.1253    1.5942  -12.0353 S   0  0  1  0  0  6  0  0  0  0  0  0
   25.9448    3.0372  -11.7542 O   0  0  0  0  0  0  0  0  0  0  0  0
   26.6030    1.3056  -13.4107 O   0  0  0  0  0  0  0  0  0  0  0  0
   24.6041    0.6745  -11.7705 C   0  0  0  0  0  0  0  0  0  0  0  0
   25.2026   -0.6018  -11.1593 C   0  0  2  0  0  0  0  0  0  0  0  0
   24.2154   -1.3715  -10.5865 O   0  0  0  0  0  0  0  0  0  0  0  0
   22.8487   -1.1713  -10.6186 C   0  0  0  0  0  0  0  0  0  0  0  0
   22.0980   -1.4385  -11.7539 C   0  0  0  0  0  0  0  0  0  0  0  0
   20.7341   -1.2394  -11.7882 C   0  0  0  0  0  0  0  0  0  0  0  0
   19.9972   -1.4998  -12.8967 F   0  0  0  0  0  0  0  0  0  0  0  0
   20.0895   -0.7640  -10.6746 C   0  0  0  0  0  0  0  0  0  0  0  0
   20.7990   -0.4861   -9.5266 C   0  0  0  0  0  0  0  0  0  0  0  0
   20.1159    0.0133   -8.3595 C   0  0  0  0  0  0  0  0  0  0  0  0
   19.5738    0.4325   -7.4246 N   0  0  0  0  0  0  0  0  0  0  0  0
   22.1795   -0.6955   -9.5154 C   0  0  0  0  0  0  0  0  0  0  0  0
  1  2  1  6
  2  3  1  1
  4  3  1  6
  5  4  1  6
  6  5  1  1
  6  7  2  0
  6  8  2  0
  6  9  1  0
  9 10  1  1
 10 11  1  1
 11 12  1  0
 12 13  2  0
 13 14  1  0
 14 15  1  0
 14 16  2  0
 16 17  1  0
 17 18  1  0
 18 19  3  0
 17 20  2  0
 10  4  1  0
 20 12  1  0
M  END
$$$$
