_rank6
     RDKit          3D

 20 21  0  0  0  0  0  0  0  0999 V2000
   27.2236    0.3161  -13.7945 C   0  0  0  0  0  0  0  0  0  0  0  0
   27.5086    0.5800  -12.3544 C   0  0  0  0  0  0  0  0  0  0  0  0
   26.3566    0.7884  -11.5896 O   0  0  0  0  0  0  0  0  0  0  0  0
   26.3253   -0.1037  -10.5203 C   0  0  1  0  0  0  0  0  0  0  0  0
   27.3154    0.4048   -9.4949 C   0  0  0  0  0  0  0  0  0  0  0  0
   26.6321   -0.2894   -7.9879 S   0  0  1  0  0  6  0  0  0  0  0  0
   27.4849   -1.3693   -7.4397 O   0  0  0  0  0  0  0  0  0  0  0  0
   26.2978    0.7700   -7.0035 O   0  0  0  0  0  0  0  0  0  0  0  0
   25.0928   -0.9366   -8.6526 C   0  0  0  0  0  0  0  0  0  0  0  0
   24.9586   -0.0176   -9.8765 C   0  0  2  0  0  0  0  0  0  0  0  0
   23.9990   -0.4985  -10.7384 O   0  0  0  0  0  0  0  0  0  0  0  0
   22.6602   -0.7278  -10.4850 C   0  0  0  0  0  0  0  0  0  0  0  0
   22.0765   -1.9662  -10.7079 C   0  0  0  0  0  0  0  0  0  0  0  0
   20.7408   -2.1972  -10.4558 C   0  0  0  0  0  0  0  0  0  0  0  0
   20.1671   -3.4069  -10.6727 F   0  0  0  0  0  0  0  0  0  0  0  0
   19.9563   -1.1819   -9.9707 C   0  0  0  0  0  0  0  0  0  0  0  0
   20.4978    0.0631   -9.7358 C   0  0  0  0  0  0  0  0  0  0  0  0
   19.6681    1.1260   -9.2258 C   0  0  0  0  0  0  0  0  0  0  0  0
   19.0169    1.9901   -8.8099 N   0  0  0  0  0  0  0  0  0  0  0  0
   21.8529    0.2735   -9.9985 C   0  0  0  0  0  0  0  0  0  0  0  0
  1  2  1  6
  2  3  1  1
  4  3  1  6
  5  4  1  6
  6  5  1  6
  6  7  2  0
  6  8  2  0
  6  9  1  0
  9 10  1  1
 10 11  1  6
 11 12  1  0
 12 13  2  0
 13 14  1  0
 14 15  1  0
 14 16  2  0
 16 17  1  0
 17 18  1  0
 18 19  3  0
 17 20  2  0
 10  4  1  0
 20 12  1  0
M  END
$$$$
