_rank12
     RDKit          3D

 20 21  0  0  0  0  0  0  0  0999 V2000
   27.8951    1.0086  -13.6145 C   0  0  0  0  0  0  0  0  0  0  0  0
   27.0523    1.8979  -12.7637 C   0  0  0  0  0  0  0  0  0  0  0  0
   25.8959    1.2745  -12.2845 O   0  0  0  0  0  0  0  0  0  0  0  0
   26.2267    0.3447  -11.3016 C   0  0  1  0  0  0  0  0  0  0  0  0
   27.2145    1.0186  -10.3740 C   0  0  0  0  0  0  0  0  0  0  0  0
   26.9370    0.1020   -8.8565 S   0  0  1  0  0  6  0  0  0  0  0  0
   28.0849   -0.7715   -8.5199 O   0  0  0  0  0  0  0  0  0  0  0  0
   26.5184    0.9969   -7.7489 O   0  0  0  0  0  0  0  0  0  0  0  0
   25.5055   -0.8567   -9.3682 C   0  0  0  0  0  0  0  0  0  0  0  0
   24.9865    0.0682  -10.4800 C   0  0  2  0  0  0  0  0  0  0  0  0
   24.0458   -0.5806  -11.2477 O   0  0  0  0  0  0  0  0  0  0  0  0
   22.7066   -0.7790  -10.9718 C   0  0  0  0  0  0  0  0  0  0  0  0
   21.9406   -1.6880  -11.6865 C   0  0  0  0  0  0  0  0  0  0  0  0
   20.6041   -1.8876  -11.4129 C   0  0  0  0  0  0  0  0  0  0  0  0
   19.8524   -2.7757  -12.1099 F   0  0  0  0  0  0  0  0  0  0  0  0
   20.0031   -1.1731  -10.4079 C   0  0  0  0  0  0  0  0  0  0  0  0
   20.7291   -0.2602   -9.6742 C   0  0  0  0  0  0  0  0  0  0  0  0
   20.0918    0.4875   -8.6193 C   0  0  0  0  0  0  0  0  0  0  0  0
   19.5967    1.0914   -7.7627 N   0  0  0  0  0  0  0  0  0  0  0  0
   22.0812   -0.0751   -9.9694 C   0  0  0  0  0  0  0  0  0  0  0  0
  1  2  1  6
  2  3  1  1
  4  3  1  6
  5  4  1  6
  6  5  1  6
  6  7  2  0
  6  8  2  0
  6  9  1  0
  9 10  1  1
 10 11  1  6
 11 12  1  0
 12 13  2  0
 13 14  1  0
 14 15  1  0
 14 16  2  0
 16 17  1  0
 17 18  1  0
 18 19  3  0
 17 20  2  0
 10  4  1  0
 20 12  1  0
M  END
$$$$
