_rank20
     RDKit          3D

 20 21  0  0  0  0  0  0  0  0999 V2000
   20.1854   -1.4296  -12.2430 C   0  0  0  0  0  0  0  0  0  0  0  0
   21.5778   -1.2895  -12.7592 C   0  0  0  0  0  0  0  0  0  0  0  0
   22.5341   -1.1570  -11.7476 O   0  0  0  0  0  0  0  0  0  0  0  0
   23.7695   -0.8246  -12.2987 C   0  0  1  0  0  0  0  0  0  0  0  0
   23.5023    0.1680  -13.4095 C   0  0  0  0  0  0  0  0  0  0  0  0
   25.0646    1.0489  -13.4625 S   0  0  1  0  0  6  0  0  0  0  0  0
   25.8311    0.7427  -14.6924 O   0  0  0  0  0  0  0  0  0  0  0  0
   24.8794    2.5008  -13.2162 O   0  0  0  0  0  0  0  0  0  0  0  0
   25.8379    0.3321  -12.0070 C   0  0  0  0  0  0  0  0  0  0  0  0
   24.5697   -0.0869  -11.2475 C   0  0  2  0  0  0  0  0  0  0  0  0
   24.8860   -0.9365  -10.2116 O   0  0  0  0  0  0  0  0  0  0  0  0
   25.4676   -0.6249   -8.9977 C   0  0  0  0  0  0  0  0  0  0  0  0
   24.7679    0.0409   -8.0022 C   0  0  0  0  0  0  0  0  0  0  0  0
   25.3463    0.3529   -6.7901 C   0  0  0  0  0  0  0  0  0  0  0  0
   24.6648    1.0038   -5.8147 F   0  0  0  0  0  0  0  0  0  0  0  0
   26.6500    0.0003   -6.5496 C   0  0  0  0  0  0  0  0  0  0  0  0
   27.3797   -0.6621   -7.5125 C   0  0  0  0  0  0  0  0  0  0  0  0
   28.7493   -1.0300   -7.2537 C   0  0  0  0  0  0  0  0  0  0  0  0
   29.8565   -1.3106   -7.0561 N   0  0  0  0  0  0  0  0  0  0  0  0
   26.7728   -0.9675   -8.7324 C   0  0  0  0  0  0  0  0  0  0  0  0
  1  2  1  6
  2  3  1  1
  4  3  1  1
  5  4  1  6
  6  5  1  6
  6  7  2  0
  6  8  2  0
  6  9  1  0
  9 10  1  1
 10 11  1  1
 11 12  1  0
 12 13  2  0
 13 14  1  0
 14 15  1  0
 14 16  2  0
 16 17  1  0
 17 18  1  0
 18 19  3  0
 17 20  2  0
 10  4  1  0
 20 12  1  0
M  END
$$$$
