_rank10
     RDKit          3D

 19 20  0  0  0  0  0  0  0  0999 V2000
   26.4501   -0.4989  -12.5122 C   0  0  0  0  0  0  0  0  0  0  0  0
   27.4613   -0.3224  -11.5880 O   0  0  0  0  0  0  0  0  0  0  0  0
   27.0468   -0.3045  -10.2907 C   0  0  1  0  0  0  0  0  0  0  0  0
   28.0117    0.3790   -9.3367 C   0  0  0  0  0  0  0  0  0  0  0  0
   27.0201    0.2927   -7.8352 S   0  0  2  0  0  6  0  0  0  0  0  0
   27.0878    1.5725   -7.0786 O   0  0  0  0  0  0  0  0  0  0  0  0
   27.3976   -0.9028   -7.0249 O   0  0  0  0  0  0  0  0  0  0  0  0
   25.4110    0.0727   -8.6136 C   0  0  0  0  0  0  0  0  0  0  0  0
   25.7517    0.4455  -10.0662 C   0  0  2  0  0  0  0  0  0  0  0  0
   24.7416   -0.0370  -10.8793 O   0  0  0  0  0  0  0  0  0  0  0  0
   23.3978   -0.1127  -10.6197 C   0  0  0  0  0  0  0  0  0  0  0  0
   22.5793    0.9901  -10.6372 C   0  0  0  0  0  0  0  0  0  0  0  0
   21.2184    0.9266  -10.3764 C   0  0  0  0  0  0  0  0  0  0  0  0
   20.4381    2.0523  -10.4053 F   0  0  0  0  0  0  0  0  0  0  0  0
   20.6287   -0.2798  -10.0831 C   0  0  0  0  0  0  0  0  0  0  0  0
   21.4241   -1.4096  -10.0572 C   0  0  0  0  0  0  0  0  0  0  0  0
   20.8238   -2.6641   -9.7566 C   0  0  0  0  0  0  0  0  0  0  0  0
   20.3116   -3.6886   -9.5057 N   0  0  0  0  0  0  0  0  0  0  0  0
   22.7730   -1.3255  -10.3189 C   0  0  0  0  0  0  0  0  0  0  0  0
  1  2  1  6
  3  2  1  6
  4  3  1  1
  5  4  1  6
  5  6  2  0
  5  7  2  0
  5  8  1  0
  8  9  1  1
  9 10  1  6
 10 11  1  0
 11 12  2  0
 12 13  1  0
 13 14  1  0
 13 15  2  0
 15 16  1  0
 16 17  1  0
 17 18  3  0
 16 19  2  0
  9  3  1  0
 19 11  1  0
M  END
$$$$
