_rank2
     RDKit          3D

 19 20  0  0  0  0  0  0  0  0999 V2000
   26.6878    0.3411   -8.0606 C   0  0  0  0  0  0  0  0  0  0  0  0
   25.6926    0.1778   -9.0043 O   0  0  0  0  0  0  0  0  0  0  0  0
   26.0434    0.5465  -10.2678 C   0  0  1  0  0  0  0  0  0  0  0  0
   27.2475   -0.1954  -10.8227 C   0  0  0  0  0  0  0  0  0  0  0  0
   27.2463    0.4877  -12.4895 S   0  0  2  0  0  6  0  0  0  0  0  0
   27.5069   -0.5737  -13.4997 O   0  0  0  0  0  0  0  0  0  0  0  0
   28.1832    1.6461  -12.5826 O   0  0  0  0  0  0  0  0  0  0  0  0
   25.5297    1.0307  -12.5332 C   0  0  0  0  0  0  0  0  0  0  0  0
   24.9727    0.2901  -11.3059 C   0  0  2  0  0  0  0  0  0  0  0  0
   23.7751    0.8870  -10.9539 O   0  0  0  0  0  0  0  0  0  0  0  0
   22.5827    0.2895  -10.6376 C   0  0  0  0  0  0  0  0  0  0  0  0
   22.3903   -1.0675  -10.7265 C   0  0  0  0  0  0  0  0  0  0  0  0
   21.1889   -1.6840  -10.4093 C   0  0  0  0  0  0  0  0  0  0  0  0
   21.0405   -3.0420  -10.5117 F   0  0  0  0  0  0  0  0  0  0  0  0
   20.1203   -0.9319   -9.9829 C   0  0  0  0  0  0  0  0  0  0  0  0
   20.2802    0.4370   -9.8821 C   0  0  0  0  0  0  0  0  0  0  0  0
   19.1812    1.2251   -9.4398 C   0  0  0  0  0  0  0  0  0  0  0  0
   18.2811    1.8713   -9.0562 N   0  0  0  0  0  0  0  0  0  0  0  0
   21.4809    1.0297  -10.2018 C   0  0  0  0  0  0  0  0  0  0  0  0
  1  2  1  6
  3  2  1  1
  4  3  1  1
  5  4  1  1
  5  6  2  0
  5  7  2  0
  5  8  1  0
  8  9  1  1
  9 10  1  1
 10 11  1  0
 11 12  2  0
 12 13  1  0
 13 14  1  0
 13 15  2  0
 15 16  1  0
 16 17  1  0
 17 18  3  0
 16 19  2  0
  9  3  1  0
 19 11  1  0
M  END
$$$$
