_rank15
     RDKit          3D

 19 20  0  0  0  0  0  0  0  0999 V2000
   20.2929    1.5127   -9.3222 C   0  0  0  0  0  0  0  0  0  0  0  0
   20.4742    0.2470   -8.7998 O   0  0  0  0  0  0  0  0  0  0  0  0
   20.8750   -0.6881   -9.7056 C   0  0  1  0  0  0  0  0  0  0  0  0
   19.8393   -1.0104  -10.7694 C   0  0  0  0  0  0  0  0  0  0  0  0
   20.8231   -2.1320  -11.7790 S   0  0  2  0  0  6  0  0  0  0  0  0
   20.6219   -1.8587  -13.2280 O   0  0  0  0  0  0  0  0  0  0  0  0
   20.5609   -3.5505  -11.3950 O   0  0  0  0  0  0  0  0  0  0  0  0
   22.4520   -1.5965  -11.2282 C   0  0  0  0  0  0  0  0  0  0  0  0
   22.0868   -0.2831  -10.5165 C   0  0  2  0  0  0  0  0  0  0  0  0
   23.1463    0.0690   -9.6993 O   0  0  0  0  0  0  0  0  0  0  0  0
   24.4896   -0.0040   -9.9621 C   0  0  0  0  0  0  0  0  0  0  0  0
   24.9849   -0.1883  -11.2299 C   0  0  0  0  0  0  0  0  0  0  0  0
   26.3416   -0.2637  -11.5088 C   0  0  0  0  0  0  0  0  0  0  0  0
   26.7926   -0.4477  -12.7892 F   0  0  0  0  0  0  0  0  0  0  0  0
   27.2608   -0.1529  -10.4930 C   0  0  0  0  0  0  0  0  0  0  0  0
   26.7960    0.0333   -9.2050 C   0  0  0  0  0  0  0  0  0  0  0  0
   27.7388    0.1513   -8.1459 C   0  0  0  0  0  0  0  0  0  0  0  0
   28.5089    0.2672   -7.2693 N   0  0  0  0  0  0  0  0  0  0  0  0
   25.4452    0.1055   -8.9489 C   0  0  0  0  0  0  0  0  0  0  0  0
  1  2  1  6
  3  2  1  1
  4  3  1  1
  5  4  1  1
  5  6  2  0
  5  7  2  0
  5  8  1  0
  8  9  1  1
  9 10  1  1
 10 11  1  0
 11 12  2  0
 12 13  1  0
 13 14  1  0
 13 15  2  0
 15 16  1  0
 16 17  1  0
 17 18  3  0
 16 19  2  0
  9  3  1  0
 19 11  1  0
M  END
$$$$
