_rank19
     RDKit          3D

 19 20  0  0  0  0  0  0  0  0999 V2000
   25.6597    2.2609  -12.3614 C   0  0  0  0  0  0  0  0  0  0  0  0
   26.4295    1.1869  -12.7637 O   0  0  0  0  0  0  0  0  0  0  0  0
   26.7899    0.3401  -11.7595 C   0  0  1  0  0  0  0  0  0  0  0  0
   27.8278    0.9083  -10.8065 C   0  0  0  0  0  0  0  0  0  0  0  0
   27.8801   -0.4454   -9.6192 S   0  0  2  0  0  6  0  0  0  0  0  0
   27.9171    0.0716   -8.2241 O   0  0  0  0  0  0  0  0  0  0  0  0
   28.9967   -1.3825   -9.9405 O   0  0  0  0  0  0  0  0  0  0  0  0
   26.2809   -1.1771  -10.0075 C   0  0  0  0  0  0  0  0  0  0  0  0
   25.6526   -0.0464  -10.8392 C   0  0  2  0  0  0  0  0  0  0  0  0
   24.5886   -0.5770  -11.5469 O   0  0  0  0  0  0  0  0  0  0  0  0
   23.3273   -0.8734  -11.0997 C   0  0  0  0  0  0  0  0  0  0  0  0
   22.3143   -1.2535  -11.9457 C   0  0  0  0  0  0  0  0  0  0  0  0
   21.0342   -1.5561  -11.5056 C   0  0  0  0  0  0  0  0  0  0  0  0
   20.0530   -1.9320  -12.3846 F   0  0  0  0  0  0  0  0  0  0  0  0
   20.7306   -1.4824  -10.1670 C   0  0  0  0  0  0  0  0  0  0  0  0
   21.7272   -1.1030   -9.2883 C   0  0  0  0  0  0  0  0  0  0  0  0
   21.4246   -1.0253   -7.9001 C   0  0  0  0  0  0  0  0  0  0  0  0
   21.1924   -0.9510   -6.7532 N   0  0  0  0  0  0  0  0  0  0  0  0
   22.9917   -0.8067   -9.7451 C   0  0  0  0  0  0  0  0  0  0  0  0
  1  2  1  6
  3  2  1  6
  4  3  1  1
  5  4  1  6
  5  6  2  0
  5  7  2  0
  5  8  1  0
  8  9  1  1
  9 10  1  6
 10 11  1  0
 11 12  2  0
 12 13  1  0
 13 14  1  0
 13 15  2  0
 15 16  1  0
 16 17  1  0
 17 18  3  0
 16 19  2  0
  9  3  1  0
 19 11  1  0
M  END
$$$$
