_rank3
     RDKit          3D

 19 20  0  0  0  0  0  0  0  0999 V2000
   26.2960    0.0048  -12.9348 C   0  0  0  0  0  0  0  0  0  0  0  0
   25.8449    0.7511  -11.8637 O   0  0  0  0  0  0  0  0  0  0  0  0
   26.1931    0.2582  -10.6426 C   0  0  1  0  0  0  0  0  0  0  0  0
   27.1524    1.1417   -9.8634 C   0  0  0  0  0  0  0  0  0  0  0  0
   27.2077    0.1999   -8.3288 S   0  0  2  0  0  6  0  0  0  0  0  0
   27.1485    1.1032   -7.1476 O   0  0  0  0  0  0  0  0  0  0  0  0
   28.3826   -0.7210   -8.3202 O   0  0  0  0  0  0  0  0  0  0  0  0
   25.6671   -0.7087   -8.5404 C   0  0  0  0  0  0  0  0  0  0  0  0
   25.0295    0.0895   -9.6899 C   0  0  2  0  0  0  0  0  0  0  0  0
   24.0297   -0.6880  -10.2469 O   0  0  0  0  0  0  0  0  0  0  0  0
   22.6716   -0.5226  -10.1635 C   0  0  0  0  0  0  0  0  0  0  0  0
   22.0897    0.6992   -9.9291 C   0  0  0  0  0  0  0  0  0  0  0  0
   20.7170    0.8796   -9.8427 C   0  0  0  0  0  0  0  0  0  0  0  0
   20.1784    2.1172   -9.6080 F   0  0  0  0  0  0  0  0  0  0  0  0
   19.8705   -0.1927   -9.9937 C   0  0  0  0  0  0  0  0  0  0  0  0
   20.4235   -1.4367  -10.2309 C   0  0  0  0  0  0  0  0  0  0  0  0
   19.5564   -2.5534  -10.3908 C   0  0  0  0  0  0  0  0  0  0  0  0
   18.8555   -3.4854  -10.5133 N   0  0  0  0  0  0  0  0  0  0  0  0
   21.7885   -1.5949  -10.3131 C   0  0  0  0  0  0  0  0  0  0  0  0
  1  2  1  6
  3  2  1  6
  4  3  1  1
  5  4  1  6
  5  6  2  0
  5  7  2  0
  5  8  1  0
  8  9  1  1
  9 10  1  6
 10 11  1  0
 11 12  2  0
 12 13  1  0
 13 14  1  0
 13 15  2  0
 15 16  1  0
 16 17  1  0
 17 18  3  0
 16 19  2  0
  9  3  1  0
 19 11  1  0
M  END
$$$$
