_rank8
     RDKit          3D

 19 20  0  0  0  0  0  0  0  0999 V2000
   26.4824    1.7772  -12.5928 C   0  0  0  0  0  0  0  0  0  0  0  0
   27.1319    0.5678  -12.4402 O   0  0  0  0  0  0  0  0  0  0  0  0
   27.0465    0.0320  -11.1908 C   0  0  1  0  0  0  0  0  0  0  0  0
   28.0436    0.6036  -10.1973 C   0  0  0  0  0  0  0  0  0  0  0  0
   27.4826   -0.2590   -8.7186 S   0  0  2  0  0  6  0  0  0  0  0  0
   27.4557    0.6572   -7.5461 O   0  0  0  0  0  0  0  0  0  0  0  0
   28.2889   -1.4951   -8.4945 O   0  0  0  0  0  0  0  0  0  0  0  0
   25.8187   -0.6574   -9.2809 C   0  0  0  0  0  0  0  0  0  0  0  0
   25.7139    0.2598  -10.5108 C   0  0  2  0  0  0  0  0  0  0  0  0
   24.6649   -0.1913  -11.2921 O   0  0  0  0  0  0  0  0  0  0  0  0
   23.3357   -0.2808  -10.9695 C   0  0  0  0  0  0  0  0  0  0  0  0
   22.6123    0.7945  -10.5147 C   0  0  0  0  0  0  0  0  0  0  0  0
   21.2671    0.7169  -10.1852 C   0  0  0  0  0  0  0  0  0  0  0  0
   20.5831    1.8154   -9.7356 F   0  0  0  0  0  0  0  0  0  0  0  0
   20.5957   -0.4762  -10.3076 C   0  0  0  0  0  0  0  0  0  0  0  0
   21.2942   -1.5783  -10.7627 C   0  0  0  0  0  0  0  0  0  0  0  0
   20.6086   -2.8181  -10.8952 C   0  0  0  0  0  0  0  0  0  0  0  0
   20.0546   -3.8472  -10.9890 N   0  0  0  0  0  0  0  0  0  0  0  0
   22.6291   -1.4806  -11.0846 C   0  0  0  0  0  0  0  0  0  0  0  0
  1  2  1  6
  3  2  1  6
  4  3  1  1
  5  4  1  6
  5  6  2  0
  5  7  2  0
  5  8  1  0
  8  9  1  1
  9 10  1  6
 10 11  1  0
 11 12  2  0
 12 13  1  0
 13 14  1  0
 13 15  2  0
 15 16  1  0
 16 17  1  0
 17 18  3  0
 16 19  2  0
  9  3  1  0
 19 11  1  0
M  END
$$$$
