_rank1
     RDKit          3D

 19 20  0  0  0  0  0  0  0  0999 V2000
   26.8049    0.8822  -13.2718 C   0  0  0  0  0  0  0  0  0  0  0  0
   25.9221    1.1635  -12.2474 O   0  0  0  0  0  0  0  0  0  0  0  0
   26.1367    0.4557  -11.1037 C   0  0  1  0  0  0  0  0  0  0  0  0
   27.0089    1.1677  -10.0836 C   0  0  0  0  0  0  0  0  0  0  0  0
   26.8981   -0.0311   -8.7436 S   0  0  2  0  0  6  0  0  0  0  0  0
   26.7146    0.6508   -7.4335 O   0  0  0  0  0  0  0  0  0  0  0  0
   28.0637   -0.9631   -8.7756 O   0  0  0  0  0  0  0  0  0  0  0  0
   25.3873   -0.8558   -9.2736 C   0  0  0  0  0  0  0  0  0  0  0  0
   24.8777    0.1458  -10.3235 C   0  0  2  0  0  0  0  0  0  0  0  0
   23.9418   -0.5004  -11.1115 O   0  0  0  0  0  0  0  0  0  0  0  0
   22.5966   -0.6483  -10.8935 C   0  0  0  0  0  0  0  0  0  0  0  0
   21.9192   -1.7997  -11.2123 C   0  0  0  0  0  0  0  0  0  0  0  0
   20.5586   -1.9617  -10.9966 C   0  0  0  0  0  0  0  0  0  0  0  0
   19.9223   -3.1284  -11.3292 F   0  0  0  0  0  0  0  0  0  0  0  0
   19.8233   -0.9426  -10.4397 C   0  0  0  0  0  0  0  0  0  0  0  0
   20.4743    0.2300  -10.1069 C   0  0  0  0  0  0  0  0  0  0  0  0
   19.7234    1.2908   -9.5279 C   0  0  0  0  0  0  0  0  0  0  0  0
   19.0978    2.1700   -9.0691 N   0  0  0  0  0  0  0  0  0  0  0  0
   21.8256    0.3710  -10.3290 C   0  0  0  0  0  0  0  0  0  0  0  0
  1  2  1  6
  3  2  1  6
  4  3  1  1
  5  4  1  6
  5  6  2  0
  5  7  2  0
  5  8  1  0
  8  9  1  1
  9 10  1  6
 10 11  1  0
 11 12  2  0
 12 13  1  0
 13 14  1  0
 13 15  2  0
 15 16  1  0
 16 17  1  0
 17 18  3  0
 16 19  2  0
  9  3  1  0
 19 11  1  0
M  END
$$$$
