_rank7
     RDKit          3D

 27 29  0  0  0  0  0  0  0  0999 V2000
   17.5833    1.9981   -9.1253 N   0  0  0  0  0  0  0  0  0  0  0  0
   18.3324    1.2624   -9.6209 C   0  0  0  0  0  0  0  0  0  0  0  0
   19.2331    0.3474  -10.2399 C   0  0  0  0  0  0  0  0  0  0  0  0
   18.8795   -0.9543  -10.4896 C   0  0  0  0  0  0  0  0  0  0  0  0
   19.7729   -1.8013  -11.0858 C   0  0  0  0  0  0  0  0  0  0  0  0
   19.4336   -3.1028  -11.3407 F   0  0  0  0  0  0  0  0  0  0  0  0
   21.0226   -1.3658  -11.4391 C   0  0  0  0  0  0  0  0  0  0  0  0
   21.3994   -0.0358  -11.1901 C   0  0  0  0  0  0  0  0  0  0  0  0
   22.6652    0.3028  -11.5766 O   0  0  0  0  0  0  0  0  0  0  0  0
   23.8555    0.0360  -10.9637 C   0  0  0  0  0  0  0  0  0  0  0  0
   23.8354   -0.4316   -9.6529 C   0  0  0  0  0  0  0  0  0  0  0  0
   25.0185   -0.7099   -9.0093 C   0  0  0  0  0  0  0  0  0  0  0  0
   26.2134   -0.5263   -9.6599 C   0  0  0  0  0  0  0  0  0  0  0  0
   27.6906   -0.8903   -8.8112 S   0  0  2  0  0  6  0  0  0  0  0  0
   28.7412   -1.4232   -9.7440 O   0  0  0  0  0  0  0  0  0  0  0  0
   27.3845   -1.9184   -7.7571 O   0  0  0  0  0  0  0  0  0  0  0  0
   28.3140    0.5741   -8.0684 C   0  0  0  0  0  0  0  0  0  0  0  0
   28.7814    1.4599   -9.0207 F   0  0  0  0  0  0  0  0  0  0  0  0
   26.2203   -0.0607  -10.9633 C   0  0  0  0  0  0  0  0  0  0  0  0
   25.0589    0.2176  -11.6078 C   0  0  0  0  0  0  0  0  0  0  0  0
   25.3460    0.7175  -12.9990 C   0  0  0  0  0  0  0  0  0  0  0  0
   26.8156    0.9457  -13.0005 C   0  0  2  0  0  0  0  0  0  0  0  0
   27.0364    2.3137  -12.9309 F   0  0  0  0  0  0  0  0  0  0  0  0
   27.3381    0.5032  -14.2176 F   0  0  0  0  0  0  0  0  0  0  0  0
   27.3824    0.2020  -11.8454 C   0  0  1  0  0  0  0  0  0  0  0  0
   28.3224    1.0171  -11.2184 O   0  0  0  0  0  0  0  0  0  0  0  0
   20.4869    0.7935  -10.5915 C   0  0  0  0  0  0  0  0  0  0  0  0
  1  2  3  0
  2  3  1  0
  3  4  2  0
  4  5  1  0
  5  6  1  0
  5  7  2  0
  7  8  1  0
  8  9  1  0
  9 10  1  0
 10 11  2  0
 11 12  1  0
 12 13  2  0
 14 13  1  6
 14 15  2  0
 14 16  2  0
 14 17  1  0
 17 18  1  1
 13 19  1  0
 19 20  2  0
 21 20  1  6
 21 22  1  0
 22 23  1  1
 22 24  1  0
 22 25  1  0
 25 26  1  1
  8 27  2  0
 27  3  1  0
 20 10  1  0
 25 19  1  0
M  END
$$$$
