_rank11
     RDKit          3D

 27 29  0  0  0  0  0  0  0  0999 V2000
   18.1180    2.1131   -8.8333 N   0  0  0  0  0  0  0  0  0  0  0  0
   18.6684    1.2643   -9.4033 C   0  0  0  0  0  0  0  0  0  0  0  0
   19.3480    0.2108  -10.0814 C   0  0  0  0  0  0  0  0  0  0  0  0
   18.7577   -1.0094  -10.2922 C   0  0  0  0  0  0  0  0  0  0  0  0
   19.4437   -1.9948  -10.9475 C   0  0  0  0  0  0  0  0  0  0  0  0
   18.8670   -3.2172  -11.1645 F   0  0  0  0  0  0  0  0  0  0  0  0
   20.7188   -1.7793  -11.3990 C   0  0  0  0  0  0  0  0  0  0  0  0
   21.3367   -0.5352  -11.1910 C   0  0  0  0  0  0  0  0  0  0  0  0
   22.6084   -0.4177  -11.6760 O   0  0  0  0  0  0  0  0  0  0  0  0
   23.7878   -0.3295  -10.9941 C   0  0  0  0  0  0  0  0  0  0  0  0
   23.7687   -0.5005   -9.6129 C   0  0  0  0  0  0  0  0  0  0  0  0
   24.9411   -0.4180   -8.8987 C   0  0  0  0  0  0  0  0  0  0  0  0
   26.1244   -0.1680   -9.5483 C   0  0  0  0  0  0  0  0  0  0  0  0
   27.5883   -0.0711   -8.6089 S   0  0  2  0  0  6  0  0  0  0  0  0
   27.2901    0.1051   -7.1468 O   0  0  0  0  0  0  0  0  0  0  0  0
   28.3870    1.1026   -9.1053 O   0  0  0  0  0  0  0  0  0  0  0  0
   28.5064   -1.5558   -8.8024 C   0  0  0  0  0  0  0  0  0  0  0  0
   27.6754   -2.6600   -8.8260 F   0  0  0  0  0  0  0  0  0  0  0  0
   26.1304    0.0005  -10.9221 C   0  0  0  0  0  0  0  0  0  0  0  0
   24.9794   -0.0784  -11.6368 C   0  0  0  0  0  0  0  0  0  0  0  0
   25.2605    0.1541  -13.0978 C   0  0  0  0  0  0  0  0  0  0  0  0
   26.6674    0.6356  -13.1189 C   0  0  2  0  0  0  0  0  0  0  0  0
   26.6483    2.0035  -13.3500 F   0  0  0  0  0  0  0  0  0  0  0  0
   27.3295    0.0427  -14.1960 F   0  0  0  0  0  0  0  0  0  0  0  0
   27.2819    0.2709  -11.8157 C   0  0  1  0  0  0  0  0  0  0  0  0
   28.0306    1.3562  -11.3656 O   0  0  0  0  0  0  0  0  0  0  0  0
   20.6291    0.4360  -10.5316 C   0  0  0  0  0  0  0  0  0  0  0  0
  1  2  3  0
  2  3  1  0
  3  4  2  0
  4  5  1  0
  5  6  1  0
  5  7  2  0
  7  8  1  0
  8  9  1  0
  9 10  1  0
 10 11  2  0
 11 12  1  0
 12 13  2  0
 14 13  1  6
 14 15  2  0
 14 16  2  0
 14 17  1  0
 17 18  1  1
 13 19  1  0
 19 20  2  0
 21 20  1  6
 21 22  1  0
 22 23  1  6
 22 24  1  0
 22 25  1  0
 25 26  1  1
  8 27  2  0
 27  3  1  0
 20 10  1  0
 25 19  1  0
M  END
$$$$
