_rank3
     RDKit          3D

 27 29  0  0  0  0  0  0  0  0999 V2000
   17.9522    2.0163   -8.7040 N   0  0  0  0  0  0  0  0  0  0  0  0
   18.5457    1.2004   -9.2786 C   0  0  0  0  0  0  0  0  0  0  0  0
   19.2953    0.2074   -9.9740 C   0  0  0  0  0  0  0  0  0  0  0  0
   18.7955   -1.0512  -10.1928 C   0  0  0  0  0  0  0  0  0  0  0  0
   19.5467   -1.9760  -10.8648 C   0  0  0  0  0  0  0  0  0  0  0  0
   19.0606   -3.2358  -11.0900 F   0  0  0  0  0  0  0  0  0  0  0  0
   20.7978   -1.6615  -11.3251 C   0  0  0  0  0  0  0  0  0  0  0  0
   21.3234   -0.3769  -11.1091 C   0  0  0  0  0  0  0  0  0  0  0  0
   22.5781   -0.1601  -11.6038 O   0  0  0  0  0  0  0  0  0  0  0  0
   23.7852   -0.2734  -10.9763 C   0  0  0  0  0  0  0  0  0  0  0  0
   23.8004   -0.6049   -9.6246 C   0  0  0  0  0  0  0  0  0  0  0  0
   25.0011   -0.7270   -8.9653 C   0  0  0  0  0  0  0  0  0  0  0  0
   26.1788   -0.5222   -9.6405 C   0  0  0  0  0  0  0  0  0  0  0  0
   27.6793   -0.6864   -8.7707 S   0  0  2  0  0  6  0  0  0  0  0  0
   28.7526   -1.2818   -9.6376 O   0  0  0  0  0  0  0  0  0  0  0  0
   27.4380   -1.5780   -7.5839 O   0  0  0  0  0  0  0  0  0  0  0  0
   28.2237    0.8969   -8.2401 C   0  0  0  0  0  0  0  0  0  0  0  0
   27.7985    1.8889   -9.1034 F   0  0  0  0  0  0  0  0  0  0  0  0
   26.1506   -0.1928  -10.9845 C   0  0  0  0  0  0  0  0  0  0  0  0
   24.9715   -0.0692  -11.6449 C   0  0  0  0  0  0  0  0  0  0  0  0
   25.2201    0.3061  -13.0819 C   0  0  0  0  0  0  0  0  0  0  0  0
   26.6684    0.6420  -13.1182 C   0  0  2  0  0  0  0  0  0  0  0  0
   26.7860    2.0226  -13.1899 F   0  0  0  0  0  0  0  0  0  0  0  0
   27.2224    0.1179  -14.2879 F   0  0  0  0  0  0  0  0  0  0  0  0
   27.2896    0.0644  -11.8978 C   0  0  1  0  0  0  0  0  0  0  0  0
   28.1659    1.0071  -11.3644 O   0  0  0  0  0  0  0  0  0  0  0  0
   20.5518    0.5320  -10.4330 C   0  0  0  0  0  0  0  0  0  0  0  0
  1  2  3  0
  2  3  1  0
  3  4  2  0
  4  5  1  0
  5  6  1  0
  5  7  2  0
  7  8  1  0
  8  9  1  0
  9 10  1  0
 10 11  2  0
 11 12  1  0
 12 13  2  0
 14 13  1  6
 14 15  2  0
 14 16  2  0
 14 17  1  0
 17 18  1  1
 13 19  1  0
 19 20  2  0
 21 20  1  6
 21 22  1  0
 22 23  1  6
 22 24  1  0
 22 25  1  0
 25 26  1  1
  8 27  2  0
 27  3  1  0
 20 10  1  0
 25 19  1  0
M  END
$$$$
