_rank19
     RDKit          3D

 27 29  0  0  0  0  0  0  0  0999 V2000
   18.2133   -3.7541   -8.9191 N   0  0  0  0  0  0  0  0  0  0  0  0
   18.7096   -2.7948   -9.3454 C   0  0  0  0  0  0  0  0  0  0  0  0
   19.3133   -1.6249   -9.8916 C   0  0  0  0  0  0  0  0  0  0  0  0
   18.6465   -0.4272   -9.9437 C   0  0  0  0  0  0  0  0  0  0  0  0
   19.2611    0.6730  -10.4759 C   0  0  0  0  0  0  0  0  0  0  0  0
   18.6076    1.8744  -10.5344 F   0  0  0  0  0  0  0  0  0  0  0  0
   20.5401    0.5953  -10.9599 C   0  0  0  0  0  0  0  0  0  0  0  0
   21.2360   -0.6240  -10.9134 C   0  0  0  0  0  0  0  0  0  0  0  0
   22.5039   -0.6013  -11.4214 O   0  0  0  0  0  0  0  0  0  0  0  0
   23.6979   -0.5551  -10.7611 C   0  0  0  0  0  0  0  0  0  0  0  0
   23.7168   -0.8646   -9.4042 C   0  0  0  0  0  0  0  0  0  0  0  0
   24.9046   -0.8276   -8.7122 C   0  0  0  0  0  0  0  0  0  0  0  0
   26.0660   -0.4864   -9.3600 C   0  0  0  0  0  0  0  0  0  0  0  0
   27.5506   -0.4510   -8.4491 S   0  0  2  0  0  6  0  0  0  0  0  0
   28.4173    0.7059   -8.8592 O   0  0  0  0  0  0  0  0  0  0  0  0
   28.2827   -1.7413   -8.6958 O   0  0  0  0  0  0  0  0  0  0  0  0
   27.1839   -0.2779   -6.7402 C   0  0  0  0  0  0  0  0  0  0  0  0
   26.7928    1.0131   -6.4393 F   0  0  0  0  0  0  0  0  0  0  0  0
   26.0342   -0.1805  -10.7094 C   0  0  0  0  0  0  0  0  0  0  0  0
   24.8676   -0.2133  -11.4021 C   0  0  0  0  0  0  0  0  0  0  0  0
   25.1073    0.1714  -12.8381 C   0  0  0  0  0  0  0  0  0  0  0  0
   26.5032    0.6846  -12.8423 C   0  0  2  0  0  0  0  0  0  0  0  0
   26.4502    2.0680  -12.9334 F   0  0  0  0  0  0  0  0  0  0  0  0
   27.1502    0.2185  -13.9887 F   0  0  0  0  0  0  0  0  0  0  0  0
   27.1573    0.2048  -11.5970 C   0  0  1  0  0  0  0  0  0  0  0  0
   27.8945    1.2562  -11.0566 O   0  0  0  0  0  0  0  0  0  0  0  0
   20.5987   -1.7120  -10.3760 C   0  0  0  0  0  0  0  0  0  0  0  0
  1  2  3  0
  2  3  1  0
  3  4  2  0
  4  5  1  0
  5  6  1  0
  5  7  2  0
  7  8  1  0
  8  9  1  0
  9 10  1  0
 10 11  2  0
 11 12  1  0
 12 13  2  0
 14 13  1  6
 14 15  2  0
 14 16  2  0
 14 17  1  0
 17 18  1  1
 13 19  1  0
 19 20  2  0
 21 20  1  6
 21 22  1  0
 22 23  1  1
 22 24  1  0
 22 25  1  0
 25 26  1  1
  8 27  2  0
 27  3  1  0
 20 10  1  0
 25 19  1  0
M  END
$$$$
