_rank6
     RDKit          3D

 27 29  0  0  0  0  0  0  0  0999 V2000
   18.3613   -4.1500  -10.7382 N   0  0  0  0  0  0  0  0  0  0  0  0
   18.8015   -3.0808  -10.6325 C   0  0  0  0  0  0  0  0  0  0  0  0
   19.3188   -1.7589  -10.5033 C   0  0  0  0  0  0  0  0  0  0  0  0
   18.5923   -0.7550   -9.9148 C   0  0  0  0  0  0  0  0  0  0  0  0
   19.1247    0.5007   -9.8099 C   0  0  0  0  0  0  0  0  0  0  0  0
   18.4109    1.5119   -9.2253 F   0  0  0  0  0  0  0  0  0  0  0  0
   20.3799    0.7714  -10.2867 C   0  0  0  0  0  0  0  0  0  0  0  0
   21.1361   -0.2459  -10.8916 C   0  0  0  0  0  0  0  0  0  0  0  0
   22.3742    0.1220  -11.3365 O   0  0  0  0  0  0  0  0  0  0  0  0
   23.5992   -0.1347  -10.7913 C   0  0  0  0  0  0  0  0  0  0  0  0
   23.6583   -0.5695   -9.4704 C   0  0  0  0  0  0  0  0  0  0  0  0
   24.8778   -0.8370   -8.8938 C   0  0  0  0  0  0  0  0  0  0  0  0
   26.0310   -0.6750   -9.6208 C   0  0  0  0  0  0  0  0  0  0  0  0
   27.5565   -1.0243   -8.8554 S   0  0  2  0  0  6  0  0  0  0  0  0
   28.3812   -1.9687   -9.6836 O   0  0  0  0  0  0  0  0  0  0  0  0
   27.2768   -1.6436   -7.5137 O   0  0  0  0  0  0  0  0  0  0  0  0
   28.4667    0.4649   -8.6591 C   0  0  0  0  0  0  0  0  0  0  0  0
   28.5134    0.8532   -7.3335 F   0  0  0  0  0  0  0  0  0  0  0  0
   25.9593   -0.2419  -10.9334 C   0  0  0  0  0  0  0  0  0  0  0  0
   24.7613    0.0255  -11.5123 C   0  0  0  0  0  0  0  0  0  0  0  0
   24.9638    0.4894  -12.9305 C   0  0  0  0  0  0  0  0  0  0  0  0
   26.4312    0.7109  -13.0279 C   0  0  2  0  0  0  0  0  0  0  0  0
   26.6599    2.0792  -13.0063 F   0  0  0  0  0  0  0  0  0  0  0  0
   26.8767    0.2360  -14.2633 F   0  0  0  0  0  0  0  0  0  0  0  0
   27.0658   -0.0064  -11.8914 C   0  0  1  0  0  0  0  0  0  0  0  0
   28.0448    0.8199  -11.3439 O   0  0  0  0  0  0  0  0  0  0  0  0
   20.5809   -1.4956  -10.9852 C   0  0  0  0  0  0  0  0  0  0  0  0
  1  2  3  0
  2  3  1  0
  3  4  2  0
  4  5  1  0
  5  6  1  0
  5  7  2  0
  7  8  1  0
  8  9  1  0
  9 10  1  0
 10 11  2  0
 11 12  1  0
 12 13  2  0
 14 13  1  6
 14 15  2  0
 14 16  2  0
 14 17  1  0
 17 18  1  1
 13 19  1  0
 19 20  2  0
 21 20  1  6
 21 22  1  0
 22 23  1  1
 22 24  1  0
 22 25  1  0
 25 26  1  1
  8 27  2  0
 27  3  1  0
 20 10  1  0
 25 19  1  0
M  END
$$$$
