_rank5
     RDKit          3D

 25 27  0  0  0  0  0  0  0  0999 V2000
   25.6134    0.5120  -13.0049 O   0  0  0  0  0  0  0  0  0  0  0  0
   26.3641    0.3690  -12.0259 N   0  0  0  0  0  4  0  0  0  0  0  0
   27.7151    0.5344  -12.2106 O   0  0  0  0  0  1  0  0  0  0  0  0
   25.8084    0.0371  -10.7374 C   0  0  0  0  0  0  0  0  0  0  0  0
   24.4636   -0.2633  -10.6761 C   0  0  0  0  0  0  0  0  0  0  0  0
   23.6364   -0.2546  -11.8240 N   0  0  0  0  0  0  0  0  0  0  0  0
   22.3898   -0.8776  -11.8353 C   0  0  0  0  0  0  0  0  0  0  0  0
   21.3178   -0.3934  -11.0060 C   0  0  0  0  0  0  0  0  0  0  0  0
   21.2812    0.9605  -10.7071 C   0  0  0  0  0  0  0  0  0  0  0  0
   20.2945    1.5301   -9.9304 C   0  0  0  0  0  0  0  0  0  0  0  0
   20.2610    2.8442   -9.6414 F   0  0  0  0  0  0  0  0  0  0  0  0
   19.2868    0.7426   -9.4143 C   0  0  0  0  0  0  0  0  0  0  0  0
   19.3270   -0.6014   -9.7134 C   0  0  0  0  0  0  0  0  0  0  0  0
   20.3309   -1.1797  -10.5036 C   0  0  0  0  0  0  0  0  0  0  0  0
   20.3811   -2.6083  -10.8193 C   0  0  2  0  0  0  0  0  0  0  0  0
   21.7054   -2.8507  -11.2473 F   0  0  0  0  0  0  0  0  0  0  0  0
   19.6272   -2.9677  -11.9146 F   0  0  0  0  0  0  0  0  0  0  0  0
   20.2301   -3.4555   -9.7561 F   0  0  0  0  0  0  0  0  0  0  0  0
   23.9631   -0.5766   -9.4280 C   0  0  0  0  0  0  0  0  0  0  0  0
   24.7849   -0.5816   -8.3189 C   0  0  0  0  0  0  0  0  0  0  0  0
   26.1241   -0.2770   -8.4137 C   0  0  0  0  0  0  0  0  0  0  0  0
   27.1280   -0.2083   -7.5117 N   0  0  0  0  0  0  0  0  0  0  0  0
   28.2016    0.1295   -8.1541 O   0  0  0  0  0  0  0  0  0  0  0  0
   27.9570    0.2850   -9.4236 N   0  0  0  0  0  0  0  0  0  0  0  0
   26.6362    0.0375   -9.6545 C   0  0  0  0  0  0  0  0  0  0  0  0
  1  2  2  0
  2  3  1  0
  2  4  1  0
  4  5  2  0
  5  6  1  0
  7  6  1  1
  7  8  1  0
  8  9  2  0
  9 10  1  0
 10 11  1  0
 10 12  2  0
 12 13  1  0
 13 14  2  0
 14 15  1  0
 15 16  1  6
 15 17  1  0
 15 18  1  0
  5 19  1  0
 19 20  2  0
 20 21  1  0
 21 22  2  0
 22 23  1  0
 23 24  1  0
 24 25  2  0
 25  4  1  0
 14  8  1  0
 25 21  1  0
M  CHG  2   2   1   3  -1
M  END
$$$$
