_rank5
     RDKit          3D

 24 27  0  0  0  0  0  0  0  0999 V2000
   26.5508    2.7339  -10.5293 F   0  0  0  0  0  0  0  0  0  0  0  0
   26.8596    1.6238   -9.8060 C   0  0  0  0  0  0  0  0  0  0  0  0
   27.9218    1.6947   -8.9002 C   0  0  0  0  0  0  0  0  0  0  0  0
   28.2772    0.5951   -8.1394 C   0  0  0  0  0  0  0  0  0  0  0  0
   27.5513   -0.5758   -8.3009 C   0  0  0  0  0  0  0  0  0  0  0  0
   28.1126   -2.2415   -7.1377 I   0  0  0  0  0  0  0  0  0  0  0  0
   26.4993   -0.6273   -9.2055 C   0  0  0  0  0  0  0  0  0  0  0  0
   26.1369    0.4636   -9.9692 C   0  0  0  0  0  0  0  0  0  0  0  0
   25.0094    0.3561  -10.9320 C   0  0  2  0  0  0  0  0  0  0  0  0
   23.7152   -0.0822  -10.2636 C   0  0  0  0  0  0  0  0  0  0  0  0
   22.6669   -0.2059  -11.3136 C   0  0  2  0  0  0  0  0  0  0  0  0
   21.2884   -0.3313  -10.8495 C   0  0  0  0  0  0  0  0  0  0  0  0
   20.6980   -1.5765  -10.8716 C   0  0  0  0  0  0  0  0  0  0  0  0
   19.3821   -1.7605  -10.4397 C   0  0  0  0  0  0  0  0  0  0  0  0
   18.6461   -0.6897   -9.9804 C   0  0  0  0  0  0  0  0  0  0  0  0
   19.2512    0.5465   -9.9652 C   0  0  0  0  0  0  0  0  0  0  0  0
   18.2439    2.0416   -9.3334 Br  0  0  0  0  0  0  0  0  0  0  0  0
   20.5740    0.7273  -10.4001 C   0  0  0  0  0  0  0  0  0  0  0  0
   23.0431   -1.3100  -12.1973 N   0  0  0  0  0  0  0  0  0  0  0  0
   24.3929   -1.3401  -12.6217 C   0  0  0  0  0  0  0  0  0  0  0  0
   25.0671   -2.0188  -13.5631 N   0  0  0  0  0  0  0  0  0  0  0  0
   26.3369   -1.6554  -13.5329 N   0  0  0  0  0  0  0  0  0  0  0  0
   26.4941   -0.7590  -12.5939 N   0  0  0  0  0  0  0  0  0  0  0  0
   25.3106   -0.5428  -12.0123 N   0  0  0  0  0  0  0  0  0  0  0  0
  1  2  1  0
  2  3  2  0
  3  4  1  0
  4  5  2  0
  5  6  1  0
  5  7  1  0
  7  8  2  0
  9  8  1  1
 10  9  1  1
 10 11  1  0
 11 12  1  1
 12 13  2  0
 13 14  1  0
 14 15  2  0
 15 16  1  0
 16 17  1  0
 16 18  2  0
 11 19  1  0
 19 20  1  0
 20 21  2  0
 21 22  1  0
 22 23  2  0
 23 24  1  0
  8  2  1  0
 24  9  1  0
 18 12  1  0
 24 20  1  0
M  END
$$$$
