_rank15
     RDKit          3D

 24 27  0  0  0  0  0  0  0  0999 V2000
   20.3827   -3.4424   -9.5625 F   0  0  0  0  0  0  0  0  0  0  0  0
   20.1018   -2.1178   -9.6945 C   0  0  0  0  0  0  0  0  0  0  0  0
   18.8508   -1.6584   -9.2730 C   0  0  0  0  0  0  0  0  0  0  0  0
   18.5141   -0.3210   -9.3843 C   0  0  0  0  0  0  0  0  0  0  0  0
   19.4509    0.5479   -9.9241 C   0  0  0  0  0  0  0  0  0  0  0  0
   18.9165    2.5799  -10.0912 I   0  0  0  0  0  0  0  0  0  0  0  0
   20.6886    0.0731  -10.3372 C   0  0  0  0  0  0  0  0  0  0  0  0
   21.0340   -1.2587  -10.2309 C   0  0  0  0  0  0  0  0  0  0  0  0
   22.3680   -1.7208  -10.6968 C   0  0  2  0  0  0  0  0  0  0  0  0
   23.5089   -1.0525   -9.9447 C   0  0  0  0  0  0  0  0  0  0  0  0
   24.7937   -1.5431  -10.5151 C   0  0  2  0  0  0  0  0  0  0  0  0
   26.0023   -1.2518   -9.7496 C   0  0  0  0  0  0  0  0  0  0  0  0
   26.3766   -2.1277   -8.7534 C   0  0  0  0  0  0  0  0  0  0  0  0
   27.5232   -1.9038   -7.9871 C   0  0  0  0  0  0  0  0  0  0  0  0
   28.3057   -0.7929   -8.2169 C   0  0  0  0  0  0  0  0  0  0  0  0
   27.9172    0.0711   -9.2154 C   0  0  0  0  0  0  0  0  0  0  0  0
   28.9900    1.6169   -9.5452 Br  0  0  0  0  0  0  0  0  0  0  0  0
   26.7642   -0.1574   -9.9834 C   0  0  0  0  0  0  0  0  0  0  0  0
   24.8923   -1.0522  -11.8901 N   0  0  0  0  0  0  0  0  0  0  0  0
   23.7326   -1.1917  -12.6893 C   0  0  0  0  0  0  0  0  0  0  0  0
   23.4772   -1.0800  -14.0022 N   0  0  0  0  0  0  0  0  0  0  0  0
   22.1954   -1.3189  -14.2156 N   0  0  0  0  0  0  0  0  0  0  0  0
   21.6217   -1.5815  -13.0703 N   0  0  0  0  0  0  0  0  0  0  0  0
   22.5457   -1.5106  -12.1075 N   0  0  0  0  0  0  0  0  0  0  0  0
  1  2  1  0
  2  3  2  0
  3  4  1  0
  4  5  2  0
  5  6  1  0
  5  7  1  0
  7  8  2  0
  9  8  1  1
 10  9  1  1
 10 11  1  0
 11 12  1  1
 12 13  2  0
 13 14  1  0
 14 15  2  0
 15 16  1  0
 16 17  1  0
 16 18  2  0
 11 19  1  0
 19 20  1  0
 20 21  2  0
 21 22  1  0
 22 23  2  0
 23 24  1  0
  8  2  1  0
 24  9  1  0
 18 12  1  0
 24 20  1  0
M  END
$$$$
