_rank17
     RDKit          3D

 25 27  0  0  0  0  0  0  0  0999 V2000
   24.6764   -0.2511  -12.9854 O   0  0  0  0  0  0  0  0  0  0  0  0
   25.6352    0.0688  -12.2638 N   0  0  0  0  0  4  0  0  0  0  0  0
   26.7930    0.4939  -12.8684 O   0  0  0  0  0  1  0  0  0  0  0  0
   25.5128   -0.0129  -10.8294 C   0  0  0  0  0  0  0  0  0  0  0  0
   24.3638   -0.5757  -10.3139 C   0  0  0  0  0  0  0  0  0  0  0  0
   23.3268   -1.0649  -11.1429 N   0  0  0  0  0  0  0  0  0  0  0  0
   22.0795   -1.4148  -10.6292 C   0  0  0  0  0  0  0  0  0  0  0  0
   20.9311   -0.5761  -10.8503 C   0  0  0  0  0  0  0  0  0  0  0  0
   20.4024   -0.5137  -12.1310 C   0  0  0  0  0  0  0  0  0  0  0  0
   19.2996    0.2501  -12.4503 C   0  0  0  0  0  0  0  0  0  0  0  0
   18.7883    0.3093  -13.6939 F   0  0  0  0  0  0  0  0  0  0  0  0
   18.6745    0.9954  -11.4727 C   0  0  0  0  0  0  0  0  0  0  0  0
   19.2028    0.9307  -10.2022 C   0  0  0  0  0  0  0  0  0  0  0  0
   20.3244    0.1536   -9.8786 C   0  0  0  0  0  0  0  0  0  0  0  0
   20.8929    0.0863   -8.5313 C   0  0  2  0  0  0  0  0  0  0  0  0
   19.7931   -0.1299   -7.6713 F   0  0  0  0  0  0  0  0  0  0  0  0
   21.4127    1.2797   -8.0813 F   0  0  0  0  0  0  0  0  0  0  0  0
   21.7055   -0.9860   -8.2842 F   0  0  0  0  0  0  0  0  0  0  0  0
   24.2779   -0.6385   -8.9373 C   0  0  0  0  0  0  0  0  0  0  0  0
   25.2997   -0.1576   -8.1436 C   0  0  0  0  0  0  0  0  0  0  0  0
   26.4346    0.3987   -8.6895 C   0  0  0  0  0  0  0  0  0  0  0  0
   27.5565    0.9324   -8.1580 N   0  0  0  0  0  0  0  0  0  0  0  0
   28.3081    1.3110   -9.1434 O   0  0  0  0  0  0  0  0  0  0  0  0
   27.7421    1.0551  -10.2879 N   0  0  0  0  0  0  0  0  0  0  0  0
   26.5326    0.4672  -10.0630 C   0  0  0  0  0  0  0  0  0  0  0  0
  1  2  2  0
  2  3  1  0
  2  4  1  0
  4  5  2  0
  5  6  1  0
  7  6  1  1
  7  8  1  0
  8  9  2  0
  9 10  1  0
 10 11  1  0
 10 12  2  0
 12 13  1  0
 13 14  2  0
 14 15  1  0
 15 16  1  1
 15 17  1  0
 15 18  1  0
  5 19  1  0
 19 20  2  0
 20 21  1  0
 21 22  2  0
 22 23  1  0
 23 24  1  0
 24 25  2  0
 25  4  1  0
 14  8  1  0
 25 21  1  0
M  CHG  2   2   1   3  -1
M  END
$$$$
