_rank13
     RDKit          3D

 24 27  0  0  0  0  0  0  0  0999 V2000
   21.3669    1.5189  -10.5943 F   0  0  0  0  0  0  0  0  0  0  0  0
   20.5668    0.4402  -10.3773 C   0  0  0  0  0  0  0  0  0  0  0  0
   19.2347    0.6623  -10.0169 C   0  0  0  0  0  0  0  0  0  0  0  0
   18.3782   -0.3993   -9.7852 C   0  0  0  0  0  0  0  0  0  0  0  0
   18.8779   -1.6862   -9.9207 C   0  0  0  0  0  0  0  0  0  0  0  0
   17.5591   -3.2896   -9.5571 I   0  0  0  0  0  0  0  0  0  0  0  0
   20.2039   -1.8872  -10.2797 C   0  0  0  0  0  0  0  0  0  0  0  0
   21.0664   -0.8353  -10.5127 C   0  0  0  0  0  0  0  0  0  0  0  0
   22.4809   -1.1015  -10.8847 C   0  0  2  0  0  0  0  0  0  0  0  0
   23.4655   -0.4698   -9.9124 C   0  0  0  0  0  0  0  0  0  0  0  0
   24.8449   -0.7513  -10.3970 C   0  0  2  0  0  0  0  0  0  0  0  0
   25.9334   -0.4866   -9.4608 C   0  0  0  0  0  0  0  0  0  0  0  0
   26.2741    0.8236   -9.2023 C   0  0  0  0  0  0  0  0  0  0  0  0
   27.3061    1.1408   -8.3155 C   0  0  0  0  0  0  0  0  0  0  0  0
   28.0069    0.1393   -7.6792 C   0  0  0  0  0  0  0  0  0  0  0  0
   27.6534   -1.1633   -7.9489 C   0  0  0  0  0  0  0  0  0  0  0  0
   28.6164   -2.5636   -7.0765 Br  0  0  0  0  0  0  0  0  0  0  0  0
   26.6155   -1.4780   -8.8407 C   0  0  0  0  0  0  0  0  0  0  0  0
   25.0322   -0.0378  -11.6608 N   0  0  0  0  0  0  0  0  0  0  0  0
   23.9801   -0.1436  -12.6015 C   0  0  0  0  0  0  0  0  0  0  0  0
   23.8494    0.1571  -13.9029 N   0  0  0  0  0  0  0  0  0  0  0  0
   22.6270   -0.1515  -14.2978 N   0  0  0  0  0  0  0  0  0  0  0  0
   21.9695   -0.6436  -13.2802 N   0  0  0  0  0  0  0  0  0  0  0  0
   22.7787   -0.6516  -12.2169 N   0  0  0  0  0  0  0  0  0  0  0  0
  1  2  1  0
  2  3  2  0
  3  4  1  0
  4  5  2  0
  5  6  1  0
  5  7  1  0
  7  8  2  0
  9  8  1  1
 10  9  1  1
 10 11  1  0
 11 12  1  1
 12 13  2  0
 13 14  1  0
 14 15  2  0
 15 16  1  0
 16 17  1  0
 16 18  2  0
 11 19  1  0
 19 20  1  0
 20 21  2  0
 21 22  1  0
 22 23  2  0
 23 24  1  0
  8  2  1  0
 24  9  1  0
 18 12  1  0
 24 20  1  0
M  END
$$$$
