_rank12
     RDKit          3D

 25 27  0  0  0  0  0  0  0  0999 V2000
   22.7957    1.7589  -12.0230 O   0  0  0  0  0  0  0  0  0  0  0  0
   21.8574    1.4512  -11.2697 N   0  0  0  0  0  4  0  0  0  0  0  0
   21.1195    2.4607  -10.7013 O   0  0  0  0  0  1  0  0  0  0  0  0
   21.5692    0.0619  -11.0127 C   0  0  0  0  0  0  0  0  0  0  0  0
   22.5952   -0.8465  -11.1693 C   0  0  0  0  0  0  0  0  0  0  0  0
   23.8953   -0.4539  -11.5662 N   0  0  0  0  0  0  0  0  0  0  0  0
   25.0341   -1.1089  -11.1012 C   0  0  0  0  0  0  0  0  0  0  0  0
   25.7531   -0.6123   -9.9577 C   0  0  0  0  0  0  0  0  0  0  0  0
   25.0225   -0.1941   -8.8554 C   0  0  0  0  0  0  0  0  0  0  0  0
   25.6106    0.2892   -7.7058 C   0  0  0  0  0  0  0  0  0  0  0  0
   24.8995    0.6948   -6.6374 F   0  0  0  0  0  0  0  0  0  0  0  0
   26.9846    0.3719   -7.6201 C   0  0  0  0  0  0  0  0  0  0  0  0
   27.7065   -0.0444   -8.7170 C   0  0  0  0  0  0  0  0  0  0  0  0
   27.1073   -0.5359   -9.8857 C   0  0  0  0  0  0  0  0  0  0  0  0
   27.8700   -0.9738  -11.0560 C   0  0  2  0  0  0  0  0  0  0  0  0
   27.1249   -0.5360  -12.1736 F   0  0  0  0  0  0  0  0  0  0  0  0
   27.9086   -2.3407  -11.2212 F   0  0  0  0  0  0  0  0  0  0  0  0
   29.0864   -0.3726  -11.2291 F   0  0  0  0  0  0  0  0  0  0  0  0
   22.2861   -2.1681  -10.9157 C   0  0  0  0  0  0  0  0  0  0  0  0
   21.0127   -2.5333  -10.5280 C   0  0  0  0  0  0  0  0  0  0  0  0
   20.0099   -1.6016  -10.3804 C   0  0  0  0  0  0  0  0  0  0  0  0
   18.7095   -1.6841  -10.0224 N   0  0  0  0  0  0  0  0  0  0  0  0
   18.2250   -0.4825  -10.0488 O   0  0  0  0  0  0  0  0  0  0  0  0
   19.1338    0.3802  -10.4030 N   0  0  0  0  0  0  0  0  0  0  0  0
   20.3058   -0.2784  -10.6306 C   0  0  0  0  0  0  0  0  0  0  0  0
  1  2  2  0
  2  3  1  0
  2  4  1  0
  4  5  2  0
  5  6  1  0
  7  6  1  1
  7  8  1  0
  8  9  2  0
  9 10  1  0
 10 11  1  0
 10 12  2  0
 12 13  1  0
 13 14  2  0
 14 15  1  0
 15 16  1  6
 15 17  1  0
 15 18  1  0
  5 19  1  0
 19 20  2  0
 20 21  1  0
 21 22  2  0
 22 23  1  0
 23 24  1  0
 24 25  2  0
 25  4  1  0
 14  8  1  0
 25 21  1  0
M  CHG  2   2   1   3  -1
M  END
$$$$
