_rank14
     RDKit          3D

 24 27  0  0  0  0  0  0  0  0999 V2000
   23.9345    0.7677   -7.3283 F   0  0  0  0  0  0  0  0  0  0  0  0
   24.9799    0.1870   -7.9770 C   0  0  0  0  0  0  0  0  0  0  0  0
   26.1565   -0.0518   -7.2613 C   0  0  0  0  0  0  0  0  0  0  0  0
   27.2493   -0.6402   -7.8727 C   0  0  0  0  0  0  0  0  0  0  0  0
   27.1437   -0.9855   -9.2120 C   0  0  0  0  0  0  0  0  0  0  0  0
   28.8215   -1.8747  -10.1268 I   0  0  0  0  0  0  0  0  0  0  0  0
   25.9668   -0.7407   -9.9066 C   0  0  0  0  0  0  0  0  0  0  0  0
   24.8713   -0.1540   -9.3062 C   0  0  0  0  0  0  0  0  0  0  0  0
   23.6364    0.0972  -10.0948 C   0  0  2  0  0  0  0  0  0  0  0  0
   22.6919   -1.0952  -10.0899 C   0  0  0  0  0  0  0  0  0  0  0  0
   21.5168   -0.7626  -10.9414 C   0  0  2  0  0  0  0  0  0  0  0  0
   20.3622   -1.6501  -10.8376 C   0  0  0  0  0  0  0  0  0  0  0  0
   20.5153   -2.9723  -11.1953 C   0  0  0  0  0  0  0  0  0  0  0  0
   19.4480   -3.8706  -11.1173 C   0  0  0  0  0  0  0  0  0  0  0  0
   18.2133   -3.4451  -10.6774 C   0  0  0  0  0  0  0  0  0  0  0  0
   18.0783   -2.1216  -10.3243 C   0  0  0  0  0  0  0  0  0  0  0  0
   16.3725   -1.5152   -9.7145 Br  0  0  0  0  0  0  0  0  0  0  0  0
   19.1533   -1.2219  -10.4041 C   0  0  0  0  0  0  0  0  0  0  0  0
   21.9827   -0.6396  -12.3231 N   0  0  0  0  0  0  0  0  0  0  0  0
   23.1621    0.1173  -12.5211 C   0  0  0  0  0  0  0  0  0  0  0  0
   23.7763    0.6361  -13.5957 N   0  0  0  0  0  0  0  0  0  0  0  0
   24.8707    1.2658  -13.2067 N   0  0  0  0  0  0  0  0  0  0  0  0
   24.9736    1.1636  -11.9072 N   0  0  0  0  0  0  0  0  0  0  0  0
   23.9325    0.4590  -11.4539 N   0  0  0  0  0  0  0  0  0  0  0  0
  1  2  1  0
  2  3  2  0
  3  4  1  0
  4  5  2  0
  5  6  1  0
  5  7  1  0
  7  8  2  0
  9  8  1  1
 10  9  1  1
 10 11  1  0
 11 12  1  6
 12 13  2  0
 13 14  1  0
 14 15  2  0
 15 16  1  0
 16 17  1  0
 16 18  2  0
 11 19  1  0
 19 20  1  0
 20 21  2  0
 21 22  1  0
 22 23  2  0
 23 24  1  0
  8  2  1  0
 24  9  1  0
 18 12  1  0
 24 20  1  0
M  END
$$$$
