_rank3
     RDKit          3D

 25 27  0  0  0  0  0  0  0  0999 V2000
   26.4926    0.4472  -12.8258 O   0  0  0  0  0  0  0  0  0  0  0  0
   25.5013    0.2148  -12.1145 N   0  0  0  0  0  4  0  0  0  0  0  0
   24.2768    0.0880  -12.7239 O   0  0  0  0  0  1  0  0  0  0  0  0
   25.6565    0.0859  -10.6868 C   0  0  0  0  0  0  0  0  0  0  0  0
   24.5586   -0.3166   -9.9552 C   0  0  0  0  0  0  0  0  0  0  0  0
   23.3121   -0.6009  -10.5614 N   0  0  0  0  0  0  0  0  0  0  0  0
   22.1052   -0.2682   -9.9492 C   0  0  0  0  0  0  0  0  0  0  0  0
   20.8528   -0.7124  -10.5020 C   0  0  0  0  0  0  0  0  0  0  0  0
   20.8272   -1.9249  -11.1750 C   0  0  0  0  0  0  0  0  0  0  0  0
   19.6803   -2.4478  -11.7340 C   0  0  0  0  0  0  0  0  0  0  0  0
   19.6579   -3.6246  -12.3869 F   0  0  0  0  0  0  0  0  0  0  0  0
   18.4914   -1.7560  -11.6350 C   0  0  0  0  0  0  0  0  0  0  0  0
   18.5212   -0.5523  -10.9659 C   0  0  0  0  0  0  0  0  0  0  0  0
   19.6882   -0.0214  -10.3977 C   0  0  0  0  0  0  0  0  0  0  0  0
   19.7260    1.2599   -9.6909 C   0  0  2  0  0  0  0  0  0  0  0  0
   20.6971    1.0999   -8.6774 F   0  0  0  0  0  0  0  0  0  0  0  0
   18.5790    1.5447   -8.9835 F   0  0  0  0  0  0  0  0  0  0  0  0
   20.1937    2.3221  -10.4149 F   0  0  0  0  0  0  0  0  0  0  0  0
   24.7406   -0.4299   -8.5912 C   0  0  0  0  0  0  0  0  0  0  0  0
   25.9640   -0.1499   -8.0167 C   0  0  0  0  0  0  0  0  0  0  0  0
   27.0411    0.2498   -8.7752 C   0  0  0  0  0  0  0  0  0  0  0  0
   28.3174    0.5788   -8.4769 N   0  0  0  0  0  0  0  0  0  0  0  0
   28.9077    0.8828   -9.5898 O   0  0  0  0  0  0  0  0  0  0  0  0
   28.0909    0.7711  -10.5977 N   0  0  0  0  0  0  0  0  0  0  0  0
   26.8724    0.3667  -10.1386 C   0  0  0  0  0  0  0  0  0  0  0  0
  1  2  2  0
  2  3  1  0
  2  4  1  0
  4  5  2  0
  5  6  1  0
  7  6  1  1
  7  8  1  0
  8  9  2  0
  9 10  1  0
 10 11  1  0
 10 12  2  0
 12 13  1  0
 13 14  2  0
 14 15  1  0
 15 16  1  1
 15 17  1  0
 15 18  1  0
  5 19  1  0
 19 20  2  0
 20 21  1  0
 21 22  2  0
 22 23  1  0
 23 24  1  0
 24 25  2  0
 25  4  1  0
 14  8  1  0
 25 21  1  0
M  CHG  2   2   1   3  -1
M  END
$$$$
