_rank11
     RDKit          3D

 25 27  0  0  0  0  0  0  0  0999 V2000
   24.2373   -0.0427  -12.5384 O   0  0  0  0  0  0  0  0  0  0  0  0
   25.3766   -0.0344  -12.0441 N   0  0  0  0  0  4  0  0  0  0  0  0
   26.4556    0.0054  -12.8932 O   0  0  0  0  0  1  0  0  0  0  0  0
   25.5379   -0.0668  -10.6116 C   0  0  0  0  0  0  0  0  0  0  0  0
   24.5360   -0.6518   -9.8656 C   0  0  0  0  0  0  0  0  0  0  0  0
   23.3804   -1.2096  -10.4617 N   0  0  0  0  0  0  0  0  0  0  0  0
   22.1069   -0.9918   -9.9391 C   0  0  0  0  0  0  0  0  0  0  0  0
   20.9823   -0.7710  -10.8096 C   0  0  0  0  0  0  0  0  0  0  0  0
   20.9595   -1.4293  -12.0302 C   0  0  0  0  0  0  0  0  0  0  0  0
   19.9269   -1.2965  -12.9343 C   0  0  0  0  0  0  0  0  0  0  0  0
   19.9070   -1.9362  -14.1183 F   0  0  0  0  0  0  0  0  0  0  0  0
   18.8562   -0.4792  -12.6383 C   0  0  0  0  0  0  0  0  0  0  0  0
   18.8828    0.1729  -11.4252 C   0  0  0  0  0  0  0  0  0  0  0  0
   19.9335    0.0370  -10.5064 C   0  0  0  0  0  0  0  0  0  0  0  0
   19.9690    0.7324   -9.2187 C   0  0  2  0  0  0  0  0  0  0  0  0
   18.7938    1.5157   -9.1837 F   0  0  0  0  0  0  0  0  0  0  0  0
   20.9732    1.6693   -9.1144 F   0  0  0  0  0  0  0  0  0  0  0  0
   19.8539   -0.0637   -8.1123 F   0  0  0  0  0  0  0  0  0  0  0  0
   24.7212   -0.6663   -8.4974 C   0  0  0  0  0  0  0  0  0  0  0  0
   25.8555   -0.1188   -7.9327 C   0  0  0  0  0  0  0  0  0  0  0  0
   26.8379    0.4581   -8.7056 C   0  0  0  0  0  0  0  0  0  0  0  0
   28.0173    1.0522   -8.4190 N   0  0  0  0  0  0  0  0  0  0  0  0
   28.5467    1.4212   -9.5428 O   0  0  0  0  0  0  0  0  0  0  0  0
   27.7815    1.1021  -10.5469 N   0  0  0  0  0  0  0  0  0  0  0  0
   26.6650    0.4788  -10.0733 C   0  0  0  0  0  0  0  0  0  0  0  0
  1  2  2  0
  2  3  1  0
  2  4  1  0
  4  5  2  0
  5  6  1  0
  7  6  1  1
  7  8  1  0
  8  9  2  0
  9 10  1  0
 10 11  1  0
 10 12  2  0
 12 13  1  0
 13 14  2  0
 14 15  1  0
 15 16  1  6
 15 17  1  0
 15 18  1  0
  5 19  1  0
 19 20  2  0
 20 21  1  0
 21 22  2  0
 22 23  1  0
 23 24  1  0
 24 25  2  0
 25  4  1  0
 14  8  1  0
 25 21  1  0
M  CHG  2   2   1   3  -1
M  END
$$$$
