_rank1
     RDKit          3D

 25 27  0  0  0  0  0  0  0  0999 V2000
   20.3239   -1.1614  -12.9710 O   0  0  0  0  0  0  0  0  0  0  0  0
   21.2316   -1.2780  -12.1314 N   0  0  0  0  0  4  0  0  0  0  0  0
   22.3189   -2.0545  -12.4502 O   0  0  0  0  0  1  0  0  0  0  0  0
   21.1244   -0.6061  -10.8601 C   0  0  0  0  0  0  0  0  0  0  0  0
   22.1846   -0.7152   -9.9846 C   0  0  0  0  0  0  0  0  0  0  0  0
   23.3493   -1.4540  -10.2999 N   0  0  0  0  0  0  0  0  0  0  0  0
   24.5858   -1.1530   -9.7318 C   0  0  0  0  0  0  0  0  0  0  0  0
   25.6007   -0.4754  -10.4949 C   0  0  0  0  0  0  0  0  0  0  0  0
   25.3245   -0.1591  -11.8168 C   0  0  0  0  0  0  0  0  0  0  0  0
   26.2210    0.4970  -12.6335 C   0  0  0  0  0  0  0  0  0  0  0  0
   25.9510    0.8028  -13.9161 F   0  0  0  0  0  0  0  0  0  0  0  0
   27.4549    0.8669  -12.1409 C   0  0  0  0  0  0  0  0  0  0  0  0
   27.7252    0.5508  -10.8276 C   0  0  0  0  0  0  0  0  0  0  0  0
   26.8126   -0.1164   -9.9978 C   0  0  0  0  0  0  0  0  0  0  0  0
   27.0976   -0.4597   -8.6036 C   0  0  2  0  0  0  0  0  0  0  0  0
   27.0545   -1.8707   -8.5492 F   0  0  0  0  0  0  0  0  0  0  0  0
   26.1110   -0.0819   -7.7198 F   0  0  0  0  0  0  0  0  0  0  0  0
   28.3593   -0.1628   -8.1664 F   0  0  0  0  0  0  0  0  0  0  0  0
   22.0500   -0.0604   -8.7764 C   0  0  0  0  0  0  0  0  0  0  0  0
   20.9072    0.6571   -8.4859 C   0  0  0  0  0  0  0  0  0  0  0  0
   19.8660    0.7468   -9.3821 C   0  0  0  0  0  0  0  0  0  0  0  0
   18.6652    1.3659   -9.3533 N   0  0  0  0  0  0  0  0  0  0  0  0
   18.0749    1.1159  -10.4795 O   0  0  0  0  0  0  0  0  0  0  0  0
   18.8209    0.3695  -11.2424 N   0  0  0  0  0  0  0  0  0  0  0  0
   19.9880    0.0974  -10.5922 C   0  0  0  0  0  0  0  0  0  0  0  0
  1  2  2  0
  2  3  1  0
  2  4  1  0
  4  5  2  0
  5  6  1  0
  7  6  1  1
  7  8  1  0
  8  9  2  0
  9 10  1  0
 10 11  1  0
 10 12  2  0
 12 13  1  0
 13 14  2  0
 14 15  1  0
 15 16  1  6
 15 17  1  0
 15 18  1  0
  5 19  1  0
 19 20  2  0
 20 21  1  0
 21 22  2  0
 22 23  1  0
 23 24  1  0
 24 25  2  0
 25  4  1  0
 14  8  1  0
 25 21  1  0
M  CHG  2   2   1   3  -1
M  END
$$$$
