_rank19
     RDKit          3D

 25 27  0  0  0  0  0  0  0  0999 V2000
   27.9298    1.1751  -12.6760 O   0  0  0  0  0  0  0  0  0  0  0  0
   26.8025    0.6825  -12.5060 N   0  0  0  0  0  4  0  0  0  0  0  0
   25.7739    1.1167  -13.3062 O   0  0  0  0  0  1  0  0  0  0  0  0
   26.6024   -0.3183  -11.4875 C   0  0  0  0  0  0  0  0  0  0  0  0
   25.3141   -0.7568  -11.2623 C   0  0  0  0  0  0  0  0  0  0  0  0
   24.2099   -0.2584  -11.9932 N   0  0  0  0  0  0  0  0  0  0  0  0
   22.9017   -0.6347  -11.6944 C   0  0  0  0  0  0  0  0  0  0  0  0
   22.4527   -0.7149  -10.3294 C   0  0  0  0  0  0  0  0  0  0  0  0
   23.2407   -0.1363   -9.3456 C   0  0  0  0  0  0  0  0  0  0  0  0
   22.9000   -0.1473   -8.0095 C   0  0  0  0  0  0  0  0  0  0  0  0
   23.6663    0.4147   -7.0564 F   0  0  0  0  0  0  0  0  0  0  0  0
   21.7294   -0.7537   -7.6046 C   0  0  0  0  0  0  0  0  0  0  0  0
   20.9497   -1.3273   -8.5848 C   0  0  0  0  0  0  0  0  0  0  0  0
   21.2972   -1.3154   -9.9434 C   0  0  0  0  0  0  0  0  0  0  0  0
   20.4750   -1.9286  -10.9878 C   0  0  2  0  0  0  0  0  0  0  0  0
   19.4219   -2.5756  -10.3035 F   0  0  0  0  0  0  0  0  0  0  0  0
   21.0950   -2.9609  -11.6563 F   0  0  0  0  0  0  0  0  0  0  0  0
   19.8263   -1.0571  -11.8190 F   0  0  0  0  0  0  0  0  0  0  0  0
   25.1570   -1.7150  -10.2806 C   0  0  0  0  0  0  0  0  0  0  0  0
   26.2457   -2.1910   -9.5782 C   0  0  0  0  0  0  0  0  0  0  0  0
   27.5197   -1.7326   -9.8273 C   0  0  0  0  0  0  0  0  0  0  0  0
   28.7307   -2.0200   -9.3009 N   0  0  0  0  0  0  0  0  0  0  0  0
   29.6030   -1.2846   -9.9153 O   0  0  0  0  0  0  0  0  0  0  0  0
   29.0319   -0.5338  -10.8129 N   0  0  0  0  0  0  0  0  0  0  0  0
   27.6900   -0.7758  -10.8052 C   0  0  0  0  0  0  0  0  0  0  0  0
  1  2  2  0
  2  3  1  0
  2  4  1  0
  4  5  2  0
  5  6  1  0
  7  6  1  1
  7  8  1  0
  8  9  2  0
  9 10  1  0
 10 11  1  0
 10 12  2  0
 12 13  1  0
 13 14  2  0
 14 15  1  0
 15 16  1  1
 15 17  1  0
 15 18  1  0
  5 19  1  0
 19 20  2  0
 20 21  1  0
 21 22  2  0
 22 23  1  0
 23 24  1  0
 24 25  2  0
 25  4  1  0
 14  8  1  0
 25 21  1  0
M  CHG  2   2   1   3  -1
M  END
$$$$
