_rank4
     RDKit          3D

 24 27  0  0  0  0  0  0  0  0999 V2000
   25.9137    2.8210   -9.0728 F   0  0  0  0  0  0  0  0  0  0  0  0
   26.5148    1.6275   -8.8179 C   0  0  0  0  0  0  0  0  0  0  0  0
   27.5063    1.5792   -7.8338 C   0  0  0  0  0  0  0  0  0  0  0  0
   28.1489    0.3910   -7.5348 C   0  0  0  0  0  0  0  0  0  0  0  0
   27.7819   -0.7474   -8.2373 C   0  0  0  0  0  0  0  0  0  0  0  0
   28.7771   -2.5460   -7.7717 I   0  0  0  0  0  0  0  0  0  0  0  0
   26.7947   -0.6800   -9.2113 C   0  0  0  0  0  0  0  0  0  0  0  0
   26.1479    0.5000   -9.5173 C   0  0  0  0  0  0  0  0  0  0  0  0
   25.1044    0.5237  -10.5758 C   0  0  2  0  0  0  0  0  0  0  0  0
   23.7927   -0.0911  -10.1116 C   0  0  0  0  0  0  0  0  0  0  0  0
   22.8357   -0.0634  -11.2518 C   0  0  2  0  0  0  0  0  0  0  0  0
   21.4364   -0.3367  -10.9374 C   0  0  0  0  0  0  0  0  0  0  0  0
   20.9504   -1.6082  -11.1530 C   0  0  0  0  0  0  0  0  0  0  0  0
   19.6207   -1.9315  -10.8710 C   0  0  0  0  0  0  0  0  0  0  0  0
   18.7654   -0.9750  -10.3683 C   0  0  0  0  0  0  0  0  0  0  0  0
   19.2674    0.2895  -10.1592 C   0  0  0  0  0  0  0  0  0  0  0  0
   18.0942    1.6275   -9.4646 Br  0  0  0  0  0  0  0  0  0  0  0  0
   20.6044    0.6104  -10.4437 C   0  0  0  0  0  0  0  0  0  0  0  0
   23.3436   -0.9636  -12.2877 N   0  0  0  0  0  0  0  0  0  0  0  0
   24.7208   -0.8518  -12.5941 C   0  0  0  0  0  0  0  0  0  0  0  0
   25.5036   -1.3102  -13.5832 N   0  0  0  0  0  0  0  0  0  0  0  0
   26.7432   -0.9011  -13.3789 N   0  0  0  0  0  0  0  0  0  0  0  0
   26.7747   -0.1906  -12.2816 N   0  0  0  0  0  0  0  0  0  0  0  0
   25.5399   -0.1418  -11.7730 N   0  0  0  0  0  0  0  0  0  0  0  0
  1  2  1  0
  2  3  2  0
  3  4  1  0
  4  5  2  0
  5  6  1  0
  5  7  1  0
  7  8  2  0
  9  8  1  1
 10  9  1  1
 10 11  1  0
 11 12  1  1
 12 13  2  0
 13 14  1  0
 14 15  2  0
 15 16  1  0
 16 17  1  0
 16 18  2  0
 11 19  1  0
 19 20  1  0
 20 21  2  0
 21 22  1  0
 22 23  2  0
 23 24  1  0
  8  2  1  0
 24  9  1  0
 18 12  1  0
 24 20  1  0
M  END
$$$$
