_rank18
     RDKit          3D

 24 27  0  0  0  0  0  0  0  0999 V2000
   26.8898   -2.7566   -8.6518 F   0  0  0  0  0  0  0  0  0  0  0  0
   27.0312   -2.0573   -9.8102 C   0  0  0  0  0  0  0  0  0  0  0  0
   28.2010   -2.2338  -10.5547 C   0  0  0  0  0  0  0  0  0  0  0  0
   28.3953   -1.5475  -11.7402 C   0  0  0  0  0  0  0  0  0  0  0  0
   27.3988   -0.6823  -12.1674 C   0  0  0  0  0  0  0  0  0  0  0  0
   27.7166    0.3588  -13.9724 I   0  0  0  0  0  0  0  0  0  0  0  0
   26.2436   -0.5200  -11.4146 C   0  0  0  0  0  0  0  0  0  0  0  0
   26.0402   -1.1995  -10.2307 C   0  0  0  0  0  0  0  0  0  0  0  0
   24.7907   -0.9842   -9.4546 C   0  0  2  0  0  0  0  0  0  0  0  0
   23.5844   -0.7474  -10.3506 C   0  0  0  0  0  0  0  0  0  0  0  0
   22.4011   -0.4960   -9.4827 C   0  0  2  0  0  0  0  0  0  0  0  0
   21.0941   -0.5345  -10.1320 C   0  0  0  0  0  0  0  0  0  0  0  0
   20.3588    0.6293  -10.1988 C   0  0  0  0  0  0  0  0  0  0  0  0
   19.1017    0.6563  -10.8081 C   0  0  0  0  0  0  0  0  0  0  0  0
   18.5717   -0.4912  -11.3570 C   0  0  0  0  0  0  0  0  0  0  0  0
   19.3194   -1.6443  -11.2814 C   0  0  0  0  0  0  0  0  0  0  0  0
   18.5980   -3.2442  -12.0358 Br  0  0  0  0  0  0  0  0  0  0  0  0
   20.5825   -1.6673  -10.6683 C   0  0  0  0  0  0  0  0  0  0  0  0
   22.6193    0.7687   -8.7795 N   0  0  0  0  0  0  0  0  0  0  0  0
   23.8982    0.9511   -8.2014 C   0  0  0  0  0  0  0  0  0  0  0  0
   24.4174    1.8253   -7.3254 N   0  0  0  0  0  0  0  0  0  0  0  0
   25.6909    1.5348   -7.1272 N   0  0  0  0  0  0  0  0  0  0  0  0
   26.0018    0.4942   -7.8556 N   0  0  0  0  0  0  0  0  0  0  0  0
   24.9147    0.1102   -8.5313 N   0  0  0  0  0  0  0  0  0  0  0  0
  1  2  1  0
  2  3  2  0
  3  4  1  0
  4  5  2  0
  5  6  1  0
  5  7  1  0
  7  8  2  0
  9  8  1  6
 10  9  1  1
 10 11  1  0
 11 12  1  6
 12 13  2  0
 13 14  1  0
 14 15  2  0
 15 16  1  0
 16 17  1  0
 16 18  2  0
 11 19  1  0
 19 20  1  0
 20 21  2  0
 21 22  1  0
 22 23  2  0
 23 24  1  0
  8  2  1  0
 24  9  1  0
 18 12  1  0
 24 20  1  0
M  END
$$$$
