_rank17
     RDKit          3D

 18 19  0  0  0  0  0  0  0  0999 V2000
   23.0197   -0.9121  -14.1549 N   0  0  0  0  0  0  0  0  0  0  0  0
   22.6719   -0.8698  -13.0573 C   0  0  0  0  0  0  0  0  0  0  0  0
   22.2582   -0.8007  -11.6901 C   0  0  0  0  0  0  0  0  0  0  0  0
   20.9028   -0.5772  -11.4565 C   0  0  0  0  0  0  0  0  0  0  0  0
   20.4264   -0.5058  -10.1685 C   0  0  0  0  0  0  0  0  0  0  0  0
   18.9749   -0.2660   -9.9753 C   0  0  0  0  0  0  0  0  0  0  0  0
   18.6487    0.9630  -10.5434 O   0  0  0  0  0  0  0  0  0  0  0  0
   21.2653   -0.6512   -9.0946 C   0  0  0  0  0  0  0  0  0  0  0  0
   22.6001   -0.8710   -9.3358 C   0  0  0  0  0  0  0  0  0  0  0  0
   23.0961   -0.9456  -10.6310 C   0  0  0  0  0  0  0  0  0  0  0  0
   24.4395   -1.1677  -10.7686 O   0  0  0  0  0  0  0  0  0  0  0  0
   25.4397   -0.7519   -9.9326 C   0  0  0  0  0  0  0  0  0  0  0  0
   25.5413    0.5466   -9.5113 C   0  0  0  0  0  0  0  0  0  0  0  0
   26.5754    0.9176   -8.6603 C   0  0  0  0  0  0  0  0  0  0  0  0
   27.4947   -0.0227   -8.2442 C   0  0  0  0  0  0  0  0  0  0  0  0
   28.4869    0.3850   -7.4137 F   0  0  0  0  0  0  0  0  0  0  0  0
   27.3859   -1.3308   -8.6737 C   0  0  0  0  0  0  0  0  0  0  0  0
   26.3702   -1.7202   -9.5160 C   0  0  0  0  0  0  0  0  0  0  0  0
  1  2  3  0
  2  3  1  0
  3  4  2  0
  4  5  1  0
  5  6  1  0
  6  7  1  6
  5  8  2  0
  8  9  1  0
  9 10  2  0
 10 11  1  0
 11 12  1  0
 12 13  2  0
 13 14  1  0
 14 15  2  0
 15 16  1  0
 15 17  1  0
 17 18  2  0
 10  3  1  0
 18 12  1  0
M  END
$$$$
