_rank13
     RDKit          3D

 18 19  0  0  0  0  0  0  0  0999 V2000
   26.5747   -1.3033   -7.7342 N   0  0  0  0  0  0  0  0  0  0  0  0
   26.2803   -0.9018   -8.7733 C   0  0  0  0  0  0  0  0  0  0  0  0
   25.8935   -0.4165  -10.0617 C   0  0  0  0  0  0  0  0  0  0  0  0
   26.9151    0.0441  -10.8900 C   0  0  0  0  0  0  0  0  0  0  0  0
   26.6238    0.5192  -12.1471 C   0  0  0  0  0  0  0  0  0  0  0  0
   27.7485    0.9978  -12.9884 C   0  0  0  0  0  0  0  0  0  0  0  0
   28.4345   -0.1086  -13.4833 O   0  0  0  0  0  0  0  0  0  0  0  0
   25.3345    0.5507  -12.6106 C   0  0  0  0  0  0  0  0  0  0  0  0
   24.3345    0.0944  -11.7860 C   0  0  0  0  0  0  0  0  0  0  0  0
   24.6131   -0.3883  -10.5137 C   0  0  0  0  0  0  0  0  0  0  0  0
   23.5499   -0.8204   -9.7681 O   0  0  0  0  0  0  0  0  0  0  0  0
   22.2201   -0.6618  -10.0483 C   0  0  0  0  0  0  0  0  0  0  0  0
   21.4562    0.2911   -9.4299 C   0  0  0  0  0  0  0  0  0  0  0  0
   20.1098    0.4126   -9.7516 C   0  0  0  0  0  0  0  0  0  0  0  0
   19.5486   -0.4267  -10.6913 C   0  0  0  0  0  0  0  0  0  0  0  0
   18.2308   -0.2715  -10.9734 F   0  0  0  0  0  0  0  0  0  0  0  0
   20.3255   -1.3860  -11.3107 C   0  0  0  0  0  0  0  0  0  0  0  0
   21.6604   -1.5239  -11.0078 C   0  0  0  0  0  0  0  0  0  0  0  0
  1  2  3  0
  2  3  1  0
  3  4  2  0
  4  5  1  0
  5  6  1  0
  6  7  1  6
  5  8  2  0
  8  9  1  0
  9 10  2  0
 10 11  1  0
 11 12  1  0
 12 13  2  0
 13 14  1  0
 14 15  2  0
 15 16  1  0
 15 17  1  0
 17 18  2  0
 10  3  1  0
 18 12  1  0
M  END
$$$$
