_rank2
     RDKit          3D

 18 19  0  0  0  0  0  0  0  0999 V2000
   26.5060    0.3248  -13.6401 N   0  0  0  0  0  0  0  0  0  0  0  0
   26.2814    0.0973  -12.5330 C   0  0  0  0  0  0  0  0  0  0  0  0
   25.9783   -0.1850  -11.1642 C   0  0  0  0  0  0  0  0  0  0  0  0
   27.0592   -0.2786  -10.2898 C   0  0  0  0  0  0  0  0  0  0  0  0
   26.8483   -0.5398   -8.9564 C   0  0  0  0  0  0  0  0  0  0  0  0
   28.0338   -0.6295   -8.0684 C   0  0  0  0  0  0  0  0  0  0  0  0
   28.8207    0.5029   -8.2632 O   0  0  0  0  0  0  0  0  0  0  0  0
   25.5824   -0.7127   -8.4606 C   0  0  0  0  0  0  0  0  0  0  0  0
   24.5235   -0.6186   -9.3312 C   0  0  0  0  0  0  0  0  0  0  0  0
   24.7206   -0.3554  -10.6807 C   0  0  0  0  0  0  0  0  0  0  0  0
   23.6032   -0.2804  -11.4673 O   0  0  0  0  0  0  0  0  0  0  0  0
   22.3110   -0.5412  -11.1012 C   0  0  0  0  0  0  0  0  0  0  0  0
   21.5133    0.4103  -10.5247 C   0  0  0  0  0  0  0  0  0  0  0  0
   20.2064    0.0950  -10.1728 C   0  0  0  0  0  0  0  0  0  0  0  0
   19.7185   -1.1740  -10.4052 C   0  0  0  0  0  0  0  0  0  0  0  0
   18.4370   -1.4362  -10.0454 F   0  0  0  0  0  0  0  0  0  0  0  0
   20.5293   -2.1288  -10.9869 C   0  0  0  0  0  0  0  0  0  0  0  0
   21.8260   -1.8387  -11.3434 C   0  0  0  0  0  0  0  0  0  0  0  0
  1  2  3  0
  2  3  1  0
  3  4  2  0
  4  5  1  0
  5  6  1  0
  6  7  1  6
  5  8  2  0
  8  9  1  0
  9 10  2  0
 10 11  1  0
 11 12  1  0
 12 13  2  0
 13 14  1  0
 14 15  2  0
 15 16  1  0
 15 17  1  0
 17 18  2  0
 10  3  1  0
 18 12  1  0
M  END
$$$$
