_rank1
     RDKit          3D

 18 19  0  0  0  0  0  0  0  0999 V2000
   26.4245    0.0076  -13.7069 N   0  0  0  0  0  0  0  0  0  0  0  0
   26.1753   -0.0246  -12.5824 C   0  0  0  0  0  0  0  0  0  0  0  0
   25.8796   -0.0854  -11.1845 C   0  0  0  0  0  0  0  0  0  0  0  0
   26.9624   -0.0031  -10.3113 C   0  0  0  0  0  0  0  0  0  0  0  0
   26.7584   -0.0463   -8.9521 C   0  0  0  0  0  0  0  0  0  0  0  0
   27.9456    0.0450   -8.0666 C   0  0  0  0  0  0  0  0  0  0  0  0
   28.0627   -1.1475   -7.3570 O   0  0  0  0  0  0  0  0  0  0  0  0
   25.4978   -0.1702   -8.4293 C   0  0  0  0  0  0  0  0  0  0  0  0
   24.4369   -0.2507   -9.2989 C   0  0  0  0  0  0  0  0  0  0  0  0
   24.6271   -0.2085  -10.6741 C   0  0  0  0  0  0  0  0  0  0  0  0
   23.5083   -0.2957  -11.4576 O   0  0  0  0  0  0  0  0  0  0  0  0
   22.2564   -0.6946  -11.0761 C   0  0  0  0  0  0  0  0  0  0  0  0
   21.3441    0.1802  -10.5503 C   0  0  0  0  0  0  0  0  0  0  0  0
   20.0845   -0.2753  -10.1801 C   0  0  0  0  0  0  0  0  0  0  0  0
   19.7587   -1.6056  -10.3431 C   0  0  0  0  0  0  0  0  0  0  0  0
   18.5177   -2.0049   -9.9678 F   0  0  0  0  0  0  0  0  0  0  0  0
   20.6845   -2.4823  -10.8738 C   0  0  0  0  0  0  0  0  0  0  0  0
   21.9372   -2.0533  -11.2473 C   0  0  0  0  0  0  0  0  0  0  0  0
  1  2  3  0
  2  3  1  0
  3  4  2  0
  4  5  1  0
  5  6  1  0
  6  7  1  6
  5  8  2  0
  8  9  1  0
  9 10  2  0
 10 11  1  0
 11 12  1  0
 12 13  2  0
 13 14  1  0
 14 15  2  0
 15 16  1  0
 15 17  1  0
 17 18  2  0
 10  3  1  0
 18 12  1  0
M  END
$$$$
