_rank4
     RDKit          3D

 18 19  0  0  0  0  0  0  0  0999 V2000
   26.6990   -0.2689  -13.5241 N   0  0  0  0  0  0  0  0  0  0  0  0
   26.3703   -0.2618  -12.4198 C   0  0  0  0  0  0  0  0  0  0  0  0
   25.9833   -0.2653  -11.0430 C   0  0  0  0  0  0  0  0  0  0  0  0
   26.9760    0.0354  -10.1126 C   0  0  0  0  0  0  0  0  0  0  0  0
   26.6799    0.0597   -8.7700 C   0  0  0  0  0  0  0  0  0  0  0  0
   27.7736    0.3853   -7.8215 C   0  0  0  0  0  0  0  0  0  0  0  0
   28.5860   -0.7368   -7.6790 O   0  0  0  0  0  0  0  0  0  0  0  0
   25.4137   -0.2085   -8.3197 C   0  0  0  0  0  0  0  0  0  0  0  0
   24.4420   -0.5040   -9.2453 C   0  0  0  0  0  0  0  0  0  0  0  0
   24.7259   -0.5325  -10.6046 C   0  0  0  0  0  0  0  0  0  0  0  0
   23.6917   -0.8368  -11.4476 O   0  0  0  0  0  0  0  0  0  0  0  0
   22.3768   -1.0198  -11.1165 C   0  0  0  0  0  0  0  0  0  0  0  0
   21.8994   -2.2256  -10.6780 C   0  0  0  0  0  0  0  0  0  0  0  0
   20.5550   -2.3589  -10.3523 C   0  0  0  0  0  0  0  0  0  0  0  0
   19.7076   -1.2772  -10.4723 C   0  0  0  0  0  0  0  0  0  0  0  0
   18.4035   -1.4540  -10.1431 F   0  0  0  0  0  0  0  0  0  0  0  0
   20.1965   -0.0640  -10.9157 C   0  0  0  0  0  0  0  0  0  0  0  0
   21.5237    0.0906  -11.2434 C   0  0  0  0  0  0  0  0  0  0  0  0
  1  2  3  0
  2  3  1  0
  3  4  2  0
  4  5  1  0
  5  6  1  0
  6  7  1  6
  5  8  2  0
  8  9  1  0
  9 10  2  0
 10 11  1  0
 11 12  1  0
 12 13  2  0
 13 14  1  0
 14 15  2  0
 15 16  1  0
 15 17  1  0
 17 18  2  0
 10  3  1  0
 18 12  1  0
M  END
$$$$
