_rank3
     RDKit          3D

 18 19  0  0  0  0  0  0  0  0999 V2000
   26.4806    0.1096  -13.3354 N   0  0  0  0  0  0  0  0  0  0  0  0
   26.2335   -0.0788  -12.2258 C   0  0  0  0  0  0  0  0  0  0  0  0
   25.9315   -0.2887  -10.8438 C   0  0  0  0  0  0  0  0  0  0  0  0
   27.0155   -0.4548   -9.9841 C   0  0  0  0  0  0  0  0  0  0  0  0
   26.8067   -0.6534   -8.6395 C   0  0  0  0  0  0  0  0  0  0  0  0
   27.9954   -0.8248   -7.7681 C   0  0  0  0  0  0  0  0  0  0  0  0
   28.5396    0.4305   -7.5080 O   0  0  0  0  0  0  0  0  0  0  0  0
   25.5399   -0.6923   -8.1183 C   0  0  0  0  0  0  0  0  0  0  0  0
   24.4779   -0.5276   -8.9745 C   0  0  0  0  0  0  0  0  0  0  0  0
   24.6729   -0.3263  -10.3349 C   0  0  0  0  0  0  0  0  0  0  0  0
   23.5525   -0.1726  -11.1057 O   0  0  0  0  0  0  0  0  0  0  0  0
   22.2618   -0.4705  -10.7634 C   0  0  0  0  0  0  0  0  0  0  0  0
   21.3605    0.4992  -10.4152 C   0  0  0  0  0  0  0  0  0  0  0  0
   20.0601    0.1442  -10.0774 C   0  0  0  0  0  0  0  0  0  0  0  0
   19.6829   -1.1824  -10.0938 C   0  0  0  0  0  0  0  0  0  0  0  0
   18.4034   -1.4819   -9.7568 F   0  0  0  0  0  0  0  0  0  0  0  0
   20.5979   -2.1553  -10.4457 C   0  0  0  0  0  0  0  0  0  0  0  0
   21.8903   -1.8265  -10.7839 C   0  0  0  0  0  0  0  0  0  0  0  0
  1  2  3  0
  2  3  1  0
  3  4  2  0
  4  5  1  0
  5  6  1  0
  6  7  1  6
  5  8  2  0
  8  9  1  0
  9 10  2  0
 10 11  1  0
 11 12  1  0
 12 13  2  0
 13 14  1  0
 14 15  2  0
 15 16  1  0
 15 17  1  0
 17 18  2  0
 10  3  1  0
 18 12  1  0
M  END
$$$$
