_rank20
     RDKit          3D

 18 19  0  0  0  0  0  0  0  0999 V2000
   26.8160    1.9983   -7.9020 N   0  0  0  0  0  0  0  0  0  0  0  0
   26.6910    1.0015   -8.4664 C   0  0  0  0  0  0  0  0  0  0  0  0
   26.5219   -0.2443   -9.1480 C   0  0  0  0  0  0  0  0  0  0  0  0
   27.5999   -1.1266   -9.1169 C   0  0  0  0  0  0  0  0  0  0  0  0
   27.5112   -2.3478   -9.7426 C   0  0  0  0  0  0  0  0  0  0  0  0
   28.6879   -3.2497   -9.6794 C   0  0  0  0  0  0  0  0  0  0  0  0
   29.3131   -3.0775   -8.4470 O   0  0  0  0  0  0  0  0  0  0  0  0
   26.3716   -2.7224  -10.4052 C   0  0  0  0  0  0  0  0  0  0  0  0
   25.3144   -1.8451  -10.4301 C   0  0  0  0  0  0  0  0  0  0  0  0
   25.3890   -0.6080   -9.8029 C   0  0  0  0  0  0  0  0  0  0  0  0
   24.2840    0.1954   -9.8833 O   0  0  0  0  0  0  0  0  0  0  0  0
   23.0114   -0.1744  -10.2235 C   0  0  0  0  0  0  0  0  0  0  0  0
   22.4998    0.0492  -11.4735 C   0  0  0  0  0  0  0  0  0  0  0  0
   21.2013   -0.3475  -11.7693 C   0  0  0  0  0  0  0  0  0  0  0  0
   20.4335   -0.9640  -10.8035 C   0  0  0  0  0  0  0  0  0  0  0  0
   19.1717   -1.3340  -11.1374 F   0  0  0  0  0  0  0  0  0  0  0  0
   20.9563   -1.1859   -9.5445 C   0  0  0  0  0  0  0  0  0  0  0  0
   22.2393   -0.8016   -9.2298 C   0  0  0  0  0  0  0  0  0  0  0  0
  1  2  3  0
  2  3  1  0
  3  4  2  0
  4  5  1  0
  5  6  1  0
  6  7  1  6
  5  8  2  0
  8  9  1  0
  9 10  2  0
 10 11  1  0
 11 12  1  0
 12 13  2  0
 13 14  1  0
 14 15  2  0
 15 16  1  0
 15 17  1  0
 17 18  2  0
 10  3  1  0
 18 12  1  0
M  END
$$$$
