_rank11
     RDKit          3D

 18 19  0  0  0  0  0  0  0  0999 V2000
   21.6504   -4.0613  -10.3063 N   0  0  0  0  0  0  0  0  0  0  0  0
   21.6456   -2.9100  -10.3527 C   0  0  0  0  0  0  0  0  0  0  0  0
   21.6191   -1.4819  -10.4244 C   0  0  0  0  0  0  0  0  0  0  0  0
   20.3763   -0.8702  -10.2723 C   0  0  0  0  0  0  0  0  0  0  0  0
   20.2703    0.4999  -10.3211 C   0  0  0  0  0  0  0  0  0  0  0  0
   18.9237    1.1004  -10.1536 C   0  0  0  0  0  0  0  0  0  0  0  0
   19.0124    2.4666  -10.4084 O   0  0  0  0  0  0  0  0  0  0  0  0
   21.3735    1.2885  -10.5185 C   0  0  0  0  0  0  0  0  0  0  0  0
   22.5942    0.6755  -10.6675 C   0  0  0  0  0  0  0  0  0  0  0  0
   22.7172   -0.7073  -10.6207 C   0  0  0  0  0  0  0  0  0  0  0  0
   23.9747   -1.2235  -10.7794 O   0  0  0  0  0  0  0  0  0  0  0  0
   25.1150   -0.8489  -10.1225 C   0  0  0  0  0  0  0  0  0  0  0  0
   26.3096   -0.6930  -10.7726 C   0  0  0  0  0  0  0  0  0  0  0  0
   27.4388   -0.3090  -10.0596 C   0  0  0  0  0  0  0  0  0  0  0  0
   27.3521   -0.0870   -8.7010 C   0  0  0  0  0  0  0  0  0  0  0  0
   28.4800    0.2863   -8.0463 F   0  0  0  0  0  0  0  0  0  0  0  0
   26.1435   -0.2467   -8.0519 C   0  0  0  0  0  0  0  0  0  0  0  0
   25.0129   -0.6261   -8.7380 C   0  0  0  0  0  0  0  0  0  0  0  0
  1  2  3  0
  2  3  1  0
  3  4  2  0
  4  5  1  0
  5  6  1  0
  6  7  1  6
  5  8  2  0
  8  9  1  0
  9 10  2  0
 10 11  1  0
 11 12  1  0
 12 13  2  0
 13 14  1  0
 14 15  2  0
 15 16  1  0
 15 17  1  0
 17 18  2  0
 10  3  1  0
 18 12  1  0
M  END
$$$$
