_rank18
     RDKit          3D

 25 28  0  0  0  0  0  0  0  0999 V2000
   18.3019   -3.6405  -12.4239 F   0  0  0  0  0  0  0  0  0  0  0  0
   19.0432   -3.0497  -11.4660 C   0  0  0  0  0  0  0  0  0  0  0  0
   18.6273   -3.1558  -10.1478 C   0  0  0  0  0  0  0  0  0  0  0  0
   19.4092   -2.5397   -9.1976 C   0  0  0  0  0  0  0  0  0  0  0  0
   20.5654   -1.8356   -9.4913 C   0  0  0  0  0  0  0  0  0  0  0  0
   21.4316   -1.1179   -8.1470 Cl  0  0  0  0  0  0  0  0  0  0  0  0
   20.9728   -1.7337  -10.7977 C   0  0  0  0  0  0  0  0  0  0  0  0
   22.1742   -1.0059  -11.1274 C   0  0  2  0  0  0  0  0  0  0  0  0
   23.3022   -1.1133  -10.1298 C   0  0  0  0  0  0  0  0  0  0  0  0
   24.5511   -0.7838  -10.9498 C   0  0  2  0  0  0  0  0  0  0  0  0
   25.7977   -1.1203  -10.2999 C   0  0  0  0  0  0  0  0  0  0  0  0
   26.6112   -2.1833  -10.6376 C   0  0  0  0  0  0  0  0  0  0  0  0
   27.7850   -2.4167   -9.9511 C   0  0  0  0  0  0  0  0  0  0  0  0
   28.1975   -1.6060   -8.9042 C   0  0  0  0  0  0  0  0  0  0  0  0
   27.4039   -0.5492   -8.5570 C   0  0  0  0  0  0  0  0  0  0  0  0
   27.8681    0.6474   -7.1234 Br  0  0  0  0  0  0  0  0  0  0  0  0
   26.2435   -0.3237   -9.2404 C   0  0  0  0  0  0  0  0  0  0  0  0
   24.4100    0.5636  -11.4007 N   0  0  0  0  0  0  0  0  0  0  0  0
   23.0902    1.1691  -11.4289 C   0  0  0  0  0  0  0  0  0  0  0  0
   22.6994    2.4479  -11.5735 N   0  0  0  0  0  0  0  0  0  0  0  0
   21.3803    2.4678  -11.5290 N   0  0  0  0  0  0  0  0  0  0  0  0
   20.9347    1.2363  -11.3606 N   0  0  0  0  0  0  0  0  0  0  0  0
   21.9787    0.4404  -11.2990 N   0  0  0  0  0  0  0  0  0  0  0  0
   20.2028   -2.3444  -11.7690 C   0  0  0  0  0  0  0  0  0  0  0  0
   20.5285   -2.2961  -13.0906 F   0  0  0  0  0  0  0  0  0  0  0  0
  1  2  1  0
  2  3  2  0
  3  4  1  0
  4  5  2  0
  5  6  1  0
  5  7  1  0
  8  7  1  1
  9  8  1  6
  9 10  1  0
 10 11  1  1
 11 12  2  0
 12 13  1  0
 13 14  2  0
 14 15  1  0
 15 16  1  0
 15 17  2  0
 10 18  1  0
 18 19  1  0
 19 20  2  0
 20 21  1  0
 21 22  2  0
 22 23  1  0
  7 24  2  0
 24 25  1  0
 24  2  1  0
 23  8  1  0
 17 11  1  0
 23 19  1  0
M  END
$$$$
