_rank12
     RDKit          3D

 25 28  0  0  0  0  0  0  0  0999 V2000
   18.9345    1.8291   -9.7304 F   0  0  0  0  0  0  0  0  0  0  0  0
   19.5671    0.6599   -9.9518 C   0  0  0  0  0  0  0  0  0  0  0  0
   18.8486   -0.5177   -9.8133 C   0  0  0  0  0  0  0  0  0  0  0  0
   19.5278   -1.6916  -10.0472 C   0  0  0  0  0  0  0  0  0  0  0  0
   20.8644   -1.7486  -10.4063 C   0  0  0  0  0  0  0  0  0  0  0  0
   21.5594   -3.3371  -10.6632 Cl  0  0  0  0  0  0  0  0  0  0  0  0
   21.5710   -0.5801  -10.5422 C   0  0  0  0  0  0  0  0  0  0  0  0
   22.9640   -0.6150  -10.9162 C   0  0  2  0  0  0  0  0  0  0  0  0
   23.9216    0.0320   -9.9449 C   0  0  0  0  0  0  0  0  0  0  0  0
   25.2648   -0.6313  -10.2554 C   0  0  2  0  0  0  0  0  0  0  0  0
   26.2844   -0.4117   -9.2545 C   0  0  0  0  0  0  0  0  0  0  0  0
   26.9007    0.7963   -8.9961 C   0  0  0  0  0  0  0  0  0  0  0  0
   27.8649    0.8983   -8.0146 C   0  0  0  0  0  0  0  0  0  0  0  0
   28.2552   -0.1923   -7.2518 C   0  0  0  0  0  0  0  0  0  0  0  0
   27.6550   -1.3956   -7.4947 C   0  0  0  0  0  0  0  0  0  0  0  0
   28.1097   -2.9808   -6.5033 Br  0  0  0  0  0  0  0  0  0  0  0  0
   26.7015   -1.4899   -8.4674 C   0  0  0  0  0  0  0  0  0  0  0  0
   25.6023   -0.2804  -11.5977 N   0  0  0  0  0  0  0  0  0  0  0  0
   24.5567    0.1735  -12.4979 C   0  0  0  0  0  0  0  0  0  0  0  0
   24.6146    0.7751  -13.6994 N   0  0  0  0  0  0  0  0  0  0  0  0
   23.3741    0.9801  -14.1013 N   0  0  0  0  0  0  0  0  0  0  0  0
   22.5414    0.5230  -13.1843 N   0  0  0  0  0  0  0  0  0  0  0  0
   23.2625    0.0293  -12.2027 N   0  0  0  0  0  0  0  0  0  0  0  0
   20.9093    0.6109  -10.3120 C   0  0  0  0  0  0  0  0  0  0  0  0
   21.5288    1.8188  -10.4224 F   0  0  0  0  0  0  0  0  0  0  0  0
  1  2  1  0
  2  3  2  0
  3  4  1  0
  4  5  2  0
  5  6  1  0
  5  7  1  0
  8  7  1  1
  9  8  1  6
  9 10  1  0
 10 11  1  1
 11 12  2  0
 12 13  1  0
 13 14  2  0
 14 15  1  0
 15 16  1  0
 15 17  2  0
 10 18  1  0
 18 19  1  0
 19 20  2  0
 20 21  1  0
 21 22  2  0
 22 23  1  0
  7 24  2  0
 24 25  1  0
 24  2  1  0
 23  8  1  0
 17 11  1  0
 23 19  1  0
M  END
$$$$
