_rank14
     RDKit          3D

 25 28  0  0  0  0  0  0  0  0999 V2000
   18.5933    1.7183  -10.7892 F   0  0  0  0  0  0  0  0  0  0  0  0
   19.3399    0.6151  -10.5850 C   0  0  0  0  0  0  0  0  0  0  0  0
   18.7308   -0.5042  -10.0388 C   0  0  0  0  0  0  0  0  0  0  0  0
   19.5246   -1.6115   -9.8447 C   0  0  0  0  0  0  0  0  0  0  0  0
   20.8720   -1.6575  -10.1628 C   0  0  0  0  0  0  0  0  0  0  0  0
   21.7213   -3.1574   -9.8440 Cl  0  0  0  0  0  0  0  0  0  0  0  0
   21.4700   -0.5470  -10.7033 C   0  0  0  0  0  0  0  0  0  0  0  0
   22.8720   -0.5720  -11.0432 C   0  0  2  0  0  0  0  0  0  0  0  0
   23.8217   -0.1560   -9.9460 C   0  0  0  0  0  0  0  0  0  0  0  0
   25.1483   -0.8076  -10.3410 C   0  0  2  0  0  0  0  0  0  0  0  0
   26.1430   -0.8193   -9.2922 C   0  0  0  0  0  0  0  0  0  0  0  0
   25.8816   -0.9898   -7.9474 C   0  0  0  0  0  0  0  0  0  0  0  0
   26.9078   -0.9855   -7.0252 C   0  0  0  0  0  0  0  0  0  0  0  0
   28.2318   -0.8122   -7.4001 C   0  0  0  0  0  0  0  0  0  0  0  0
   28.5081   -0.6422   -8.7275 C   0  0  0  0  0  0  0  0  0  0  0  0
   30.3040   -0.3933   -9.3718 Br  0  0  0  0  0  0  0  0  0  0  0  0
   27.4880   -0.6475   -9.6350 C   0  0  0  0  0  0  0  0  0  0  0  0
   25.5412   -0.2307  -11.5866 N   0  0  0  0  0  0  0  0  0  0  0  0
   24.5426    0.4250  -12.4126 C   0  0  0  0  0  0  0  0  0  0  0  0
   24.6612    1.2342  -13.4803 N   0  0  0  0  0  0  0  0  0  0  0  0
   23.4426    1.5623  -13.8676 N   0  0  0  0  0  0  0  0  0  0  0  0
   22.5646    0.9804  -13.0714 N   0  0  0  0  0  0  0  0  0  0  0  0
   23.2351    0.2844  -12.1808 N   0  0  0  0  0  0  0  0  0  0  0  0
   20.6922    0.5768  -10.9070 C   0  0  0  0  0  0  0  0  0  0  0  0
   21.1990    1.7243  -11.4374 F   0  0  0  0  0  0  0  0  0  0  0  0
  1  2  1  0
  2  3  2  0
  3  4  1  0
  4  5  2  0
  5  6  1  0
  5  7  1  0
  8  7  1  1
  9  8  1  6
  9 10  1  0
 10 11  1  1
 11 12  2  0
 12 13  1  0
 13 14  2  0
 14 15  1  0
 15 16  1  0
 15 17  2  0
 10 18  1  0
 18 19  1  0
 19 20  2  0
 20 21  1  0
 21 22  2  0
 22 23  1  0
  7 24  2  0
 24 25  1  0
 24  2  1  0
 23  8  1  0
 17 11  1  0
 23 19  1  0
M  END
$$$$
