_rank10
     RDKit          3D

 25 28  0  0  0  0  0  0  0  0999 V2000
   18.4510   -2.8197  -10.8583 F   0  0  0  0  0  0  0  0  0  0  0  0
   19.2818   -1.7856  -10.6200 C   0  0  0  0  0  0  0  0  0  0  0  0
   18.7633   -0.6422  -10.0320 C   0  0  0  0  0  0  0  0  0  0  0  0
   19.6414    0.3927   -9.8042 C   0  0  0  0  0  0  0  0  0  0  0  0
   20.9875    0.3448  -10.1276 C   0  0  0  0  0  0  0  0  0  0  0  0
   21.9518    1.7621   -9.7617 Cl  0  0  0  0  0  0  0  0  0  0  0  0
   21.4957   -0.7893  -10.7093 C   0  0  0  0  0  0  0  0  0  0  0  0
   22.8948   -0.8622  -11.0542 C   0  0  2  0  0  0  0  0  0  0  0  0
   23.8621   -0.4813   -9.9596 C   0  0  0  0  0  0  0  0  0  0  0  0
   25.1641   -1.1777  -10.3604 C   0  0  2  0  0  0  0  0  0  0  0  0
   26.1614   -1.2258   -9.3152 C   0  0  0  0  0  0  0  0  0  0  0  0
   26.1906   -2.1419   -8.2828 C   0  0  0  0  0  0  0  0  0  0  0  0
   27.1911   -2.1005   -7.3337 C   0  0  0  0  0  0  0  0  0  0  0  0
   28.2006   -1.1502   -7.3712 C   0  0  0  0  0  0  0  0  0  0  0  0
   28.1867   -0.2359   -8.3866 C   0  0  0  0  0  0  0  0  0  0  0  0
   29.5319    1.1304   -8.5475 Br  0  0  0  0  0  0  0  0  0  0  0  0
   27.1938   -0.2824   -9.3227 C   0  0  0  0  0  0  0  0  0  0  0  0
   25.5724   -0.6124  -11.6064 N   0  0  0  0  0  0  0  0  0  0  0  0
   24.5942    0.0790  -12.4277 C   0  0  0  0  0  0  0  0  0  0  0  0
   24.7370    0.8856  -13.4945 N   0  0  0  0  0  0  0  0  0  0  0  0
   23.5292    1.2564  -13.8768 N   0  0  0  0  0  0  0  0  0  0  0  0
   22.6343    0.7038  -13.0786 N   0  0  0  0  0  0  0  0  0  0  0  0
   23.2834   -0.0167  -12.1915 N   0  0  0  0  0  0  0  0  0  0  0  0
   20.6321   -1.8413  -10.9477 C   0  0  0  0  0  0  0  0  0  0  0  0
   21.0464   -3.0053  -11.5210 F   0  0  0  0  0  0  0  0  0  0  0  0
  1  2  1  0
  2  3  2  0
  3  4  1  0
  4  5  2  0
  5  6  1  0
  5  7  1  0
  8  7  1  1
  9  8  1  6
  9 10  1  0
 10 11  1  1
 11 12  2  0
 12 13  1  0
 13 14  2  0
 14 15  1  0
 15 16  1  0
 15 17  2  0
 10 18  1  0
 18 19  1  0
 19 20  2  0
 20 21  1  0
 21 22  2  0
 22 23  1  0
  7 24  2  0
 24 25  1  0
 24  2  1  0
 23  8  1  0
 17 11  1  0
 23 19  1  0
M  END
$$$$
