_rank5
     RDKit          3D

 25 28  0  0  0  0  0  0  0  0999 V2000
   27.4060    0.6354   -6.2888 F   0  0  0  0  0  0  0  0  0  0  0  0
   27.3337    0.1231   -7.5333 C   0  0  0  0  0  0  0  0  0  0  0  0
   28.3456   -0.7230   -7.9603 C   0  0  0  0  0  0  0  0  0  0  0  0
   28.2379   -1.2264   -9.2366 C   0  0  0  0  0  0  0  0  0  0  0  0
   27.1894   -0.9335  -10.0932 C   0  0  0  0  0  0  0  0  0  0  0  0
   27.2228   -1.6695  -11.6838 Cl  0  0  0  0  0  0  0  0  0  0  0  0
   26.1904   -0.0956   -9.6656 C   0  0  0  0  0  0  0  0  0  0  0  0
   25.0881    0.2231  -10.5402 C   0  0  2  0  0  0  0  0  0  0  0  0
   23.8206   -0.5651  -10.3141 C   0  0  0  0  0  0  0  0  0  0  0  0
   22.7248    0.3218  -10.9085 C   0  0  2  0  0  0  0  0  0  0  0  0
   21.3807   -0.0640  -10.5423 C   0  0  0  0  0  0  0  0  0  0  0  0
   20.5994    0.5689   -9.5963 C   0  0  0  0  0  0  0  0  0  0  0  0
   19.3244    0.1190   -9.3217 C   0  0  0  0  0  0  0  0  0  0  0  0
   18.7749   -0.9748   -9.9737 C   0  0  0  0  0  0  0  0  0  0  0  0
   19.5348   -1.6128  -10.9132 C   0  0  0  0  0  0  0  0  0  0  0  0
   18.8842   -3.1405  -11.8856 Br  0  0  0  0  0  0  0  0  0  0  0  0
   20.7958   -1.1625  -11.1803 C   0  0  0  0  0  0  0  0  0  0  0  0
   22.9965    0.4401  -12.3052 N   0  0  0  0  0  0  0  0  0  0  0  0
   24.3338    0.1559  -12.7956 C   0  0  0  0  0  0  0  0  0  0  0  0
   24.8033   -0.0400  -14.0407 N   0  0  0  0  0  0  0  0  0  0  0  0
   26.1005   -0.2646  -13.9454 N   0  0  0  0  0  0  0  0  0  0  0  0
   26.4558   -0.2145  -12.6747 N   0  0  0  0  0  0  0  0  0  0  0  0
   25.3769    0.0425  -11.9697 N   0  0  0  0  0  0  0  0  0  0  0  0
   26.2779    0.4221   -8.3874 C   0  0  0  0  0  0  0  0  0  0  0  0
   25.3341    1.2616   -7.8779 F   0  0  0  0  0  0  0  0  0  0  0  0
  1  2  1  0
  2  3  2  0
  3  4  1  0
  4  5  2  0
  5  6  1  0
  5  7  1  0
  8  7  1  1
  9  8  1  6
  9 10  1  0
 10 11  1  6
 11 12  2  0
 12 13  1  0
 13 14  2  0
 14 15  1  0
 15 16  1  0
 15 17  2  0
 10 18  1  0
 18 19  1  0
 19 20  2  0
 20 21  1  0
 21 22  2  0
 22 23  1  0
  7 24  2  0
 24 25  1  0
 24  2  1  0
 23  8  1  0
 17 11  1  0
 23 19  1  0
M  END
$$$$
