_rank20
     RDKit          3D

 25 28  0  0  0  0  0  0  0  0999 V2000
   29.4103   -3.1609  -10.1147 F   0  0  0  0  0  0  0  0  0  0  0  0
   28.4124   -2.4176  -10.6323 C   0  0  0  0  0  0  0  0  0  0  0  0
   28.4506   -2.1073  -11.9830 C   0  0  0  0  0  0  0  0  0  0  0  0
   27.4150   -1.3466  -12.4757 C   0  0  0  0  0  0  0  0  0  0  0  0
   26.3612   -0.8883  -11.7021 C   0  0  0  0  0  0  0  0  0  0  0  0
   25.1320    0.0685  -12.5060 Cl  0  0  0  0  0  0  0  0  0  0  0  0
   26.3281   -1.1984  -10.3658 C   0  0  0  0  0  0  0  0  0  0  0  0
   25.2400   -0.7326   -9.5406 C   0  0  2  0  0  0  0  0  0  0  0  0
   24.0435   -0.1835  -10.2793 C   0  0  0  0  0  0  0  0  0  0  0  0
   22.8963   -0.3230   -9.2767 C   0  0  2  0  0  0  0  0  0  0  0  0
   21.5797   -0.1551   -9.8491 C   0  0  0  0  0  0  0  0  0  0  0  0
   20.8749    1.0312   -9.8933 C   0  0  0  0  0  0  0  0  0  0  0  0
   19.6204    1.0833  -10.4652 C   0  0  0  0  0  0  0  0  0  0  0  0
   19.0165   -0.0376  -11.0150 C   0  0  0  0  0  0  0  0  0  0  0  0
   19.7004   -1.2200  -10.9798 C   0  0  0  0  0  0  0  0  0  0  0  0
   18.9696   -2.8433  -11.7100 Br  0  0  0  0  0  0  0  0  0  0  0  0
   20.9416   -1.2649  -10.4124 C   0  0  0  0  0  0  0  0  0  0  0  0
   23.2166    0.5060   -8.1591 N   0  0  0  0  0  0  0  0  0  0  0  0
   24.5948    0.9127   -7.9478 C   0  0  0  0  0  0  0  0  0  0  0  0
   25.1347    1.8496   -7.1481 N   0  0  0  0  0  0  0  0  0  0  0  0
   26.4419    1.8215   -7.3294 N   0  0  0  0  0  0  0  0  0  0  0  0
   26.7350    0.8925   -8.2206 N   0  0  0  0  0  0  0  0  0  0  0  0
   25.6068    0.3354   -8.6003 N   0  0  0  0  0  0  0  0  0  0  0  0
   27.3579   -1.9612   -9.8490 C   0  0  0  0  0  0  0  0  0  0  0  0
   27.4093   -2.3173   -8.5354 F   0  0  0  0  0  0  0  0  0  0  0  0
  1  2  1  0
  2  3  2  0
  3  4  1  0
  4  5  2  0
  5  6  1  0
  5  7  1  0
  8  7  1  6
  9  8  1  6
  9 10  1  0
 10 11  1  6
 11 12  2  0
 12 13  1  0
 13 14  2  0
 14 15  1  0
 15 16  1  0
 15 17  2  0
 10 18  1  0
 18 19  1  0
 19 20  2  0
 20 21  1  0
 21 22  2  0
 22 23  1  0
  7 24  2  0
 24 25  1  0
 24  2  1  0
 23  8  1  0
 17 11  1  0
 23 19  1  0
M  END
$$$$
