_rank6
     RDKit          3D

 25 28  0  0  0  0  0  0  0  0999 V2000
   28.1627    2.5496   -7.4341 F   0  0  0  0  0  0  0  0  0  0  0  0
   27.7409    1.3562   -7.8971 C   0  0  0  0  0  0  0  0  0  0  0  0
   28.2287    0.2046   -7.2989 C   0  0  0  0  0  0  0  0  0  0  0  0
   27.7758   -0.9951   -7.7984 C   0  0  0  0  0  0  0  0  0  0  0  0
   26.8759   -1.1017   -8.8462 C   0  0  0  0  0  0  0  0  0  0  0  0
   26.4137   -2.7170   -9.3461 Cl  0  0  0  0  0  0  0  0  0  0  0  0
   26.3960    0.0413   -9.4346 C   0  0  0  0  0  0  0  0  0  0  0  0
   25.4575   -0.0453  -10.5270 C   0  0  2  0  0  0  0  0  0  0  0  0
   24.2055   -0.8440  -10.2559 C   0  0  0  0  0  0  0  0  0  0  0  0
   23.1978   -0.3052  -11.2734 C   0  0  2  0  0  0  0  0  0  0  0  0
   21.8277   -0.6877  -11.0165 C   0  0  0  0  0  0  0  0  0  0  0  0
   21.2269   -1.8478  -11.4627 C   0  0  0  0  0  0  0  0  0  0  0  0
   19.9083   -2.1184  -11.1598 C   0  0  0  0  0  0  0  0  0  0  0  0
   19.1350   -1.2504  -10.4035 C   0  0  0  0  0  0  0  0  0  0  0  0
   19.7144   -0.0975   -9.9537 C   0  0  0  0  0  0  0  0  0  0  0  0
   18.7463    1.1851   -8.8955 Br  0  0  0  0  0  0  0  0  0  0  0  0
   21.0197    0.1644  -10.2569 C   0  0  0  0  0  0  0  0  0  0  0  0
   23.7126   -0.6086  -12.5702 N   0  0  0  0  0  0  0  0  0  0  0  0
   25.1275   -0.8981  -12.7233 C   0  0  0  0  0  0  0  0  0  0  0  0
   25.8227   -1.4301  -13.7445 N   0  0  0  0  0  0  0  0  0  0  0  0
   27.0898   -1.4820  -13.3781 N   0  0  0  0  0  0  0  0  0  0  0  0
   27.2067   -0.9970  -12.1557 N   0  0  0  0  0  0  0  0  0  0  0  0
   26.0078   -0.6393  -11.7532 N   0  0  0  0  0  0  0  0  0  0  0  0
   26.8373    1.2575   -8.9495 C   0  0  0  0  0  0  0  0  0  0  0  0
   26.4163    2.4432   -9.4709 F   0  0  0  0  0  0  0  0  0  0  0  0
  1  2  1  0
  2  3  2  0
  3  4  1  0
  4  5  2  0
  5  6  1  0
  5  7  1  0
  8  7  1  1
  9  8  1  6
  9 10  1  0
 10 11  1  1
 11 12  2  0
 12 13  1  0
 13 14  2  0
 14 15  1  0
 15 16  1  0
 15 17  2  0
 10 18  1  0
 18 19  1  0
 19 20  2  0
 20 21  1  0
 21 22  2  0
 22 23  1  0
  7 24  2  0
 24 25  1  0
 24  2  1  0
 23  8  1  0
 17 11  1  0
 23 19  1  0
M  END
$$$$
