_rank4
     RDKit          3D

 25 28  0  0  0  0  0  0  0  0999 V2000
   28.2244   -2.4444   -7.3283 F   0  0  0  0  0  0  0  0  0  0  0  0
   27.7499   -1.2872   -7.8305 C   0  0  0  0  0  0  0  0  0  0  0  0
   28.2230   -0.0946   -7.3052 C   0  0  0  0  0  0  0  0  0  0  0  0
   27.7156    1.0662   -7.8428 C   0  0  0  0  0  0  0  0  0  0  0  0
   26.7766    1.0964   -8.8608 C   0  0  0  0  0  0  0  0  0  0  0  0
   26.2473    2.6718   -9.4180 Cl  0  0  0  0  0  0  0  0  0  0  0  0
   26.3118   -0.0869   -9.3773 C   0  0  0  0  0  0  0  0  0  0  0  0
   25.3342   -0.0799  -10.4384 C   0  0  2  0  0  0  0  0  0  0  0  0
   24.0735   -0.8676  -10.1756 C   0  0  0  0  0  0  0  0  0  0  0  0
   23.0445   -0.2404  -11.1183 C   0  0  2  0  0  0  0  0  0  0  0  0
   21.6753   -0.6093  -10.8378 C   0  0  0  0  0  0  0  0  0  0  0  0
   21.0970   -1.8235  -11.1497 C   0  0  0  0  0  0  0  0  0  0  0  0
   19.7772   -2.0752  -10.8363 C   0  0  0  0  0  0  0  0  0  0  0  0
   18.9801   -1.1339  -10.2023 C   0  0  0  0  0  0  0  0  0  0  0  0
   19.5369    0.0733   -9.8864 C   0  0  0  0  0  0  0  0  0  0  0  0
   18.5347    1.4597   -9.0056 Br  0  0  0  0  0  0  0  0  0  0  0  0
   20.8437    0.3161  -10.1992 C   0  0  0  0  0  0  0  0  0  0  0  0
   23.5066   -0.4676  -12.4500 N   0  0  0  0  0  0  0  0  0  0  0  0
   24.9081   -0.7769  -12.6729 C   0  0  0  0  0  0  0  0  0  0  0  0
   25.5545   -1.2544  -13.7514 N   0  0  0  0  0  0  0  0  0  0  0  0
   26.8319   -1.3581  -13.4352 N   0  0  0  0  0  0  0  0  0  0  0  0
   27.0027   -0.9584  -12.1885 N   0  0  0  0  0  0  0  0  0  0  0  0
   25.8274   -0.6025  -11.7203 N   0  0  0  0  0  0  0  0  0  0  0  0
   26.8072   -1.2652   -8.8525 C   0  0  0  0  0  0  0  0  0  0  0  0
   26.4042   -2.4862   -9.3018 F   0  0  0  0  0  0  0  0  0  0  0  0
  1  2  1  0
  2  3  2  0
  3  4  1  0
  4  5  2  0
  5  6  1  0
  5  7  1  0
  8  7  1  1
  9  8  1  6
  9 10  1  0
 10 11  1  6
 11 12  2  0
 12 13  1  0
 13 14  2  0
 14 15  1  0
 15 16  1  0
 15 17  2  0
 10 18  1  0
 18 19  1  0
 19 20  2  0
 20 21  1  0
 21 22  2  0
 22 23  1  0
  7 24  2  0
 24 25  1  0
 24  2  1  0
 23  8  1  0
 17 11  1  0
 23 19  1  0
M  END
$$$$
