_rank2
     RDKit          3D

 25 28  0  0  0  0  0  0  0  0999 V2000
   28.3902   -3.2317   -8.4799 F   0  0  0  0  0  0  0  0  0  0  0  0
   27.9518   -1.9574   -8.4671 C   0  0  0  0  0  0  0  0  0  0  0  0
   28.5314   -1.0672   -7.5762 C   0  0  0  0  0  0  0  0  0  0  0  0
   28.0579    0.2249   -7.5918 C   0  0  0  0  0  0  0  0  0  0  0  0
   27.0530    0.6659   -8.4371 C   0  0  0  0  0  0  0  0  0  0  0  0
   26.5812    2.3496   -8.3131 Cl  0  0  0  0  0  0  0  0  0  0  0  0
   26.4828   -0.2191   -9.3171 C   0  0  0  0  0  0  0  0  0  0  0  0
   25.4350    0.2179  -10.2076 C   0  0  2  0  0  0  0  0  0  0  0  0
   24.2116   -0.6645  -10.2658 C   0  0  0  0  0  0  0  0  0  0  0  0
   23.1080    0.2691  -10.7669 C   0  0  2  0  0  0  0  0  0  0  0  0
   21.7690   -0.2535  -10.6140 C   0  0  0  0  0  0  0  0  0  0  0  0
   21.4482   -1.5844  -10.4360 C   0  0  0  0  0  0  0  0  0  0  0  0
   20.1332   -1.9788  -10.2991 C   0  0  0  0  0  0  0  0  0  0  0  0
   19.0862   -1.0699  -10.3332 C   0  0  0  0  0  0  0  0  0  0  0  0
   19.3862    0.2516  -10.5085 C   0  0  0  0  0  0  0  0  0  0  0  0
   18.0225    1.6075  -10.5723 Br  0  0  0  0  0  0  0  0  0  0  0  0
   20.6896    0.6353  -10.6434 C   0  0  0  0  0  0  0  0  0  0  0  0
   23.4826    0.6903  -12.0788 N   0  0  0  0  0  0  0  0  0  0  0  0
   24.8716    0.5842  -12.4898 C   0  0  0  0  0  0  0  0  0  0  0  0
   25.4525    0.6771  -13.6993 N   0  0  0  0  0  0  0  0  0  0  0  0
   26.7503    0.5048  -13.5311 N   0  0  0  0  0  0  0  0  0  0  0  0
   26.9977    0.3068  -12.2493 N   0  0  0  0  0  0  0  0  0  0  0  0
   25.8501    0.3549  -11.6106 N   0  0  0  0  0  0  0  0  0  0  0  0
   26.9424   -1.5223   -9.3189 C   0  0  0  0  0  0  0  0  0  0  0  0
   26.4362   -2.4696  -10.1565 F   0  0  0  0  0  0  0  0  0  0  0  0
  1  2  1  0
  2  3  2  0
  3  4  1  0
  4  5  2  0
  5  6  1  0
  5  7  1  0
  8  7  1  1
  9  8  1  6
  9 10  1  0
 10 11  1  6
 11 12  2  0
 12 13  1  0
 13 14  2  0
 14 15  1  0
 15 16  1  0
 15 17  2  0
 10 18  1  0
 18 19  1  0
 19 20  2  0
 20 21  1  0
 21 22  2  0
 22 23  1  0
  7 24  2  0
 24 25  1  0
 24  2  1  0
 23  8  1  0
 17 11  1  0
 23 19  1  0
M  END
$$$$
