_rank19
     RDKit          3D

 25 28  0  0  0  0  0  0  0  0999 V2000
   27.4705   -0.9737  -12.7785 F   0  0  0  0  0  0  0  0  0  0  0  0
   26.9734   -0.9040  -11.5277 C   0  0  0  0  0  0  0  0  0  0  0  0
   27.8583   -0.9418  -10.4611 C   0  0  0  0  0  0  0  0  0  0  0  0
   27.3143   -0.8684   -9.1991 C   0  0  0  0  0  0  0  0  0  0  0  0
   25.9555   -0.7607   -8.9521 C   0  0  0  0  0  0  0  0  0  0  0  0
   25.4483   -0.6791   -7.2762 Cl  0  0  0  0  0  0  0  0  0  0  0  0
   25.0840   -0.7235  -10.0114 C   0  0  0  0  0  0  0  0  0  0  0  0
   23.6646   -0.6109   -9.7783 C   0  0  2  0  0  0  0  0  0  0  0  0
   22.7787   -1.3616  -10.7429 C   0  0  0  0  0  0  0  0  0  0  0  0
   21.4739   -1.5571   -9.9683 C   0  0  2  0  0  0  0  0  0  0  0  0
   20.5695   -2.5196  -10.5558 C   0  0  0  0  0  0  0  0  0  0  0  0
   20.9170   -3.7891  -10.9722 C   0  0  0  0  0  0  0  0  0  0  0  0
   19.9731   -4.6322  -11.5215 C   0  0  0  0  0  0  0  0  0  0  0  0
   18.6493   -4.2499  -11.6791 C   0  0  0  0  0  0  0  0  0  0  0  0
   18.2884   -2.9964  -11.2719 C   0  0  0  0  0  0  0  0  0  0  0  0
   16.4834   -2.3505  -11.4371 Br  0  0  0  0  0  0  0  0  0  0  0  0
   19.2273   -2.1669  -10.7291 C   0  0  0  0  0  0  0  0  0  0  0  0
   20.9430   -0.2567   -9.7114 N   0  0  0  0  0  0  0  0  0  0  0  0
   21.8238    0.8963   -9.7777 C   0  0  0  0  0  0  0  0  0  0  0  0
   21.5635    2.2153   -9.8164 N   0  0  0  0  0  0  0  0  0  0  0  0
   22.7210    2.8472   -9.8726 N   0  0  0  0  0  0  0  0  0  0  0  0
   23.6987    1.9599   -9.8701 N   0  0  0  0  0  0  0  0  0  0  0  0
   23.1523    0.7660   -9.8122 N   0  0  0  0  0  0  0  0  0  0  0  0
   25.6079   -0.7960  -11.2880 C   0  0  0  0  0  0  0  0  0  0  0  0
   24.8204   -0.7668  -12.3988 F   0  0  0  0  0  0  0  0  0  0  0  0
  1  2  1  0
  2  3  2  0
  3  4  1  0
  4  5  2  0
  5  6  1  0
  5  7  1  0
  8  7  1  6
  9  8  1  6
  9 10  1  0
 10 11  1  6
 11 12  2  0
 12 13  1  0
 13 14  2  0
 14 15  1  0
 15 16  1  0
 15 17  2  0
 10 18  1  0
 18 19  1  0
 19 20  2  0
 20 21  1  0
 21 22  2  0
 22 23  1  0
  7 24  2  0
 24 25  1  0
 24  2  1  0
 23  8  1  0
 17 11  1  0
 23 19  1  0
M  END
$$$$
