_rank11
     RDKit          3D

 18 20  0  0  0  0  0  0  0  0999 V2000
   25.7856    0.6804   -7.5165 C   0  0  0  0  0  0  0  0  0  0  0  0
   27.0695    0.1428   -8.6547 S   0  0  1  0  0  6  0  0  0  0  0  0
   28.2843    0.9611   -8.3113 O   0  0  0  0  0  0  0  0  0  0  0  0
   27.4007   -1.2782   -8.4467 O   0  0  0  0  0  0  0  0  0  0  0  0
   26.5604    0.5617  -10.2688 C   0  0  1  0  0  0  0  0  0  0  0  0
   27.5287    0.0517  -11.3151 C   0  0  0  0  0  0  0  0  0  0  0  0
   26.6775    0.2090  -12.5823 C   0  0  0  0  0  0  0  0  0  0  0  0
   25.3953   -0.4612  -12.1393 C   0  0  0  0  0  0  0  0  0  0  0  0
   25.2427    0.0470  -10.7036 C   0  0  1  0  0  0  0  0  0  0  0  0
   24.6593   -0.9653   -9.8972 N   0  0  0  0  0  0  0  0  0  0  0  0
   23.2578   -0.8947  -10.1352 C   0  0  0  0  0  0  0  0  0  0  0  0
   22.1891   -1.7575   -9.9562 C   0  0  0  0  0  0  0  0  0  0  0  0
   20.8962   -1.4311  -10.2787 C   0  0  0  0  0  0  0  0  0  0  0  0
   19.8709   -2.3201  -10.0828 F   0  0  0  0  0  0  0  0  0  0  0  0
   20.6566   -0.1795  -10.8071 C   0  0  0  0  0  0  0  0  0  0  0  0
   21.7047    0.6977  -10.9949 C   0  0  0  0  0  0  0  0  0  0  0  0
   23.0186    0.3707  -10.6690 C   0  0  0  0  0  0  0  0  0  0  0  0
   24.2307    1.0359  -10.7487 O   0  0  0  0  0  0  0  0  0  0  0  0
  2  1  1  1
  2  3  2  0
  2  4  2  0
  5  2  1  1
  5  6  1  0
  6  7  1  1
  7  8  1  1
  8  9  1  1
  9 10  1  1
 10 11  1  0
 11 12  2  0
 12 13  1  0
 13 14  1  0
 13 15  2  0
 15 16  1  0
 16 17  2  0
 17 18  1  0
  9  5  1  0
 17 11  1  0
  9 18  1  0
M  END
$$$$
