_rank6
     RDKit          3D

 18 20  0  0  0  0  0  0  0  0999 V2000
   25.9328    0.6417   -7.4073 C   0  0  0  0  0  0  0  0  0  0  0  0
   26.8737   -0.2178   -8.6758 S   0  0  1  0  0  6  0  0  0  0  0  0
   28.2952    0.2467   -8.5107 O   0  0  0  0  0  0  0  0  0  0  0  0
   26.8407   -1.6759   -8.4631 O   0  0  0  0  0  0  0  0  0  0  0  0
   26.2933    0.3231  -10.2284 C   0  0  1  0  0  0  0  0  0  0  0  0
   27.1168   -0.2426  -11.3660 C   0  0  0  0  0  0  0  0  0  0  0  0
   26.1946    0.0604  -12.5546 C   0  0  0  0  0  0  0  0  0  0  0  0
   24.8832   -0.4860  -12.0337 C   0  0  0  0  0  0  0  0  0  0  0  0
   24.8974   -0.0269  -10.5737 C   0  0  1  0  0  0  0  0  0  0  0  0
   24.2681   -1.0043   -9.7588 N   0  0  0  0  0  0  0  0  0  0  0  0
   22.8691   -0.7726   -9.8810 C   0  0  0  0  0  0  0  0  0  0  0  0
   21.7279   -1.5219   -9.6470 C   0  0  0  0  0  0  0  0  0  0  0  0
   20.4585   -1.0441   -9.8532 C   0  0  0  0  0  0  0  0  0  0  0  0
   19.3587   -1.8248   -9.6068 F   0  0  0  0  0  0  0  0  0  0  0  0
   20.3200    0.2478  -10.3170 C   0  0  0  0  0  0  0  0  0  0  0  0
   21.4417    1.0139  -10.5576 C   0  0  0  0  0  0  0  0  0  0  0  0
   22.7321    0.5332  -10.3496 C   0  0  0  0  0  0  0  0  0  0  0  0
   24.0010    1.0665  -10.5032 O   0  0  0  0  0  0  0  0  0  0  0  0
  2  1  1  1
  2  3  2  0
  2  4  2  0
  5  2  1  1
  5  6  1  0
  6  7  1  1
  7  8  1  1
  8  9  1  1
  9 10  1  1
 10 11  1  0
 11 12  2  0
 12 13  1  0
 13 14  1  0
 13 15  2  0
 15 16  1  0
 16 17  2  0
 17 18  1  0
  9  5  1  0
 17 11  1  0
  9 18  1  0
M  END
$$$$
