_rank10
     RDKit          3D

 18 20  0  0  0  0  0  0  0  0999 V2000
   25.9721   -0.7823   -8.1650 C   0  0  0  0  0  0  0  0  0  0  0  0
   27.1670    0.2200   -9.0597 S   0  0  1  0  0  6  0  0  0  0  0  0
   27.3453    1.4679   -8.2384 O   0  0  0  0  0  0  0  0  0  0  0  0
   28.4710   -0.4616   -9.1461 O   0  0  0  0  0  0  0  0  0  0  0  0
   26.4537    0.6625  -10.5879 C   0  0  1  0  0  0  0  0  0  0  0  0
   27.2541    0.1312  -11.7581 C   0  0  0  0  0  0  0  0  0  0  0  0
   26.2420    0.3199  -12.8962 C   0  0  0  0  0  0  0  0  0  0  0  0
   25.0138   -0.3161  -12.2825 C   0  0  0  0  0  0  0  0  0  0  0  0
   25.0744    0.1880  -10.8385 C   0  0  1  0  0  0  0  0  0  0  0  0
   24.5782   -0.8120   -9.9615 N   0  0  0  0  0  0  0  0  0  0  0  0
   23.1599   -0.7003  -10.0047 C   0  0  0  0  0  0  0  0  0  0  0  0
   22.1013   -1.5334   -9.6822 C   0  0  0  0  0  0  0  0  0  0  0  0
   20.7864   -1.1686   -9.8235 C   0  0  0  0  0  0  0  0  0  0  0  0
   19.7724   -2.0292   -9.4903 F   0  0  0  0  0  0  0  0  0  0  0  0
   20.5129    0.0924  -10.3118 C   0  0  0  0  0  0  0  0  0  0  0  0
   21.5503    0.9405  -10.6401 C   0  0  0  0  0  0  0  0  0  0  0  0
   22.8864    0.5744  -10.4983 C   0  0  0  0  0  0  0  0  0  0  0  0
   24.0948    1.2054  -10.7425 O   0  0  0  0  0  0  0  0  0  0  0  0
  2  1  1  1
  2  3  2  0
  2  4  2  0
  5  2  1  1
  5  6  1  0
  6  7  1  1
  7  8  1  1
  8  9  1  1
  9 10  1  1
 10 11  1  0
 11 12  2  0
 12 13  1  0
 13 14  1  0
 13 15  2  0
 15 16  1  0
 16 17  2  0
 17 18  1  0
  9  5  1  0
 17 11  1  0
  9 18  1  0
M  END
$$$$
