_rank15
     RDKit          3D

 18 20  0  0  0  0  0  0  0  0999 V2000
   22.2870   -1.0011   -8.6694 C   0  0  0  0  0  0  0  0  0  0  0  0
   21.8166   -0.6004  -10.3579 S   0  0  1  0  0  6  0  0  0  0  0  0
   20.6387   -1.4825  -10.6707 O   0  0  0  0  0  0  0  0  0  0  0  0
   21.3797    0.8030  -10.4671 O   0  0  0  0  0  0  0  0  0  0  0  0
   23.1379   -1.0538  -11.4012 C   0  0  1  0  0  0  0  0  0  0  0  0
   23.0257   -0.4074  -12.7657 C   0  0  0  0  0  0  0  0  0  0  0  0
   24.4412   -0.6507  -13.3062 C   0  0  0  0  0  0  0  0  0  0  0  0
   25.2709   -0.1566  -12.1413 C   0  0  0  0  0  0  0  0  0  0  0  0
   24.4993   -0.7039  -10.9381 C   0  0  1  0  0  0  0  0  0  0  0  0
   24.5859    0.2124   -9.8572 N   0  0  0  0  0  0  0  0  0  0  0  0
   25.8440   -0.0320   -9.2380 C   0  0  0  0  0  0  0  0  0  0  0  0
   26.6761    0.6846   -8.3938 C   0  0  0  0  0  0  0  0  0  0  0  0
   27.8730    0.2017   -7.9289 C   0  0  0  0  0  0  0  0  0  0  0  0
   28.6627    0.9496   -7.0941 F   0  0  0  0  0  0  0  0  0  0  0  0
   28.2604   -1.0613   -8.3264 C   0  0  0  0  0  0  0  0  0  0  0  0
   27.4487   -1.7947   -9.1670 C   0  0  0  0  0  0  0  0  0  0  0  0
   26.2329   -1.3085   -9.6413 C   0  0  0  0  0  0  0  0  0  0  0  0
   25.2457   -1.8127  -10.4716 O   0  0  0  0  0  0  0  0  0  0  0  0
  2  1  1  1
  2  3  2  0
  2  4  2  0
  5  2  1  1
  5  6  1  0
  6  7  1  1
  7  8  1  1
  8  9  1  1
  9 10  1  1
 10 11  1  0
 11 12  2  0
 12 13  1  0
 13 14  1  0
 13 15  2  0
 15 16  1  0
 16 17  2  0
 17 18  1  0
  9  5  1  0
 17 11  1  0
  9 18  1  0
M  END
$$$$
