_rank3
     RDKit          3D

 18 20  0  0  0  0  0  0  0  0999 V2000
   28.1323    0.8719   -8.2380 C   0  0  0  0  0  0  0  0  0  0  0  0
   26.6204   -0.0102   -8.6493 S   0  0  1  0  0  6  0  0  0  0  0  0
   27.0248   -1.4488   -8.8227 O   0  0  0  0  0  0  0  0  0  0  0  0
   25.6476    0.0622   -7.5444 O   0  0  0  0  0  0  0  0  0  0  0  0
   26.0526    0.5921  -10.1838 C   0  0  1  0  0  0  0  0  0  0  0  0
   26.9039    0.0963  -11.3335 C   0  0  0  0  0  0  0  0  0  0  0  0
   25.9937    0.4373  -12.5211 C   0  0  0  0  0  0  0  0  0  0  0  0
   24.6858   -0.1577  -12.0472 C   0  0  0  0  0  0  0  0  0  0  0  0
   24.6692    0.2323  -10.5672 C   0  0  1  0  0  0  0  0  0  0  0  0
   24.0472   -0.7941   -9.8089 N   0  0  0  0  0  0  0  0  0  0  0  0
   22.6459   -0.5834   -9.9423 C   0  0  0  0  0  0  0  0  0  0  0  0
   21.5162   -1.3644   -9.7616 C   0  0  0  0  0  0  0  0  0  0  0  0
   20.2409   -0.9016   -9.9653 C   0  0  0  0  0  0  0  0  0  0  0  0
   19.1531   -1.7137   -9.7731 F   0  0  0  0  0  0  0  0  0  0  0  0
   20.0839    0.4078  -10.3702 C   0  0  0  0  0  0  0  0  0  0  0  0
   21.1938    1.2056  -10.5570 C   0  0  0  0  0  0  0  0  0  0  0  0
   22.4902    0.7401  -10.3514 C   0  0  0  0  0  0  0  0  0  0  0  0
   23.7504    1.3040  -10.4598 O   0  0  0  0  0  0  0  0  0  0  0  0
  2  1  1  1
  2  3  2  0
  2  4  2  0
  5  2  1  1
  5  6  1  0
  6  7  1  1
  7  8  1  1
  8  9  1  1
  9 10  1  1
 10 11  1  0
 11 12  2  0
 12 13  1  0
 13 14  1  0
 13 15  2  0
 15 16  1  0
 16 17  2  0
 17 18  1  0
  9  5  1  0
 17 11  1  0
  9 18  1  0
M  END
$$$$
