_rank14
     RDKit          3D

 18 20  0  0  0  0  0  0  0  0999 V2000
   20.0346   -1.8277  -10.8194 C   0  0  0  0  0  0  0  0  0  0  0  0
   21.4622   -1.0073  -10.0970 S   0  0  1  0  0  6  0  0  0  0  0  0
   21.0759    0.4411   -9.9695 O   0  0  0  0  0  0  0  0  0  0  0  0
   21.7445   -1.5266   -8.7468 O   0  0  0  0  0  0  0  0  0  0  0  0
   22.7787   -1.1292  -11.2336 C   0  0  1  0  0  0  0  0  0  0  0  0
   22.4887   -0.3759  -12.5145 C   0  0  0  0  0  0  0  0  0  0  0  0
   23.8925   -0.3268  -13.1326 C   0  0  0  0  0  0  0  0  0  0  0  0
   24.6962    0.1773  -11.9538 C   0  0  0  0  0  0  0  0  0  0  0  0
   24.0903   -0.6082  -10.7882 C   0  0  1  0  0  0  0  0  0  0  0  0
   24.0896    0.1961   -9.6184 N   0  0  0  0  0  0  0  0  0  0  0  0
   25.4031    0.1013   -9.0785 C   0  0  0  0  0  0  0  0  0  0  0  0
   26.1557    0.8565   -8.1942 C   0  0  0  0  0  0  0  0  0  0  0  0
   27.4386    0.5331   -7.8310 C   0  0  0  0  0  0  0  0  0  0  0  0
   28.1439    1.3129   -6.9511 F   0  0  0  0  0  0  0  0  0  0  0  0
   28.0000   -0.6022   -8.3780 C   0  0  0  0  0  0  0  0  0  0  0  0
   27.2703   -1.3708   -9.2612 C   0  0  0  0  0  0  0  0  0  0  0  0
   25.9679   -1.0464   -9.6327 C   0  0  0  0  0  0  0  0  0  0  0  0
   25.0292   -1.6201  -10.4740 O   0  0  0  0  0  0  0  0  0  0  0  0
  2  1  1  6
  2  3  2  0
  2  4  2  0
  5  2  1  1
  5  6  1  0
  6  7  1  1
  7  8  1  1
  8  9  1  1
  9 10  1  1
 10 11  1  0
 11 12  2  0
 12 13  1  0
 13 14  1  0
 13 15  2  0
 15 16  1  0
 16 17  2  0
 17 18  1  0
  9  5  1  0
 17 11  1  0
  9 18  1  0
M  END
$$$$
