_rank2
     RDKit          3D

 18 20  0  0  0  0  0  0  0  0999 V2000
   27.0174    1.0438   -7.4279 C   0  0  0  0  0  0  0  0  0  0  0  0
   26.8012   -0.2737   -8.6322 S   0  0  1  0  0  6  0  0  0  0  0  0
   28.1822   -0.8048   -8.9044 O   0  0  0  0  0  0  0  0  0  0  0  0
   25.9896   -1.3713   -8.0765 O   0  0  0  0  0  0  0  0  0  0  0  0
   26.1859    0.4406  -10.0989 C   0  0  1  0  0  0  0  0  0  0  0  0
   27.0763    0.1436  -11.2868 C   0  0  0  0  0  0  0  0  0  0  0  0
   26.1415    0.5334  -12.4398 C   0  0  0  0  0  0  0  0  0  0  0  0
   24.8877   -0.2159  -12.0447 C   0  0  0  0  0  0  0  0  0  0  0  0
   24.8377    0.0102  -10.5318 C   0  0  1  0  0  0  0  0  0  0  0  0
   24.3033   -1.1399   -9.8936 N   0  0  0  0  0  0  0  0  0  0  0  0
   22.8894   -1.0335  -10.0171 C   0  0  0  0  0  0  0  0  0  0  0  0
   21.8290   -1.9205   -9.9318 C   0  0  0  0  0  0  0  0  0  0  0  0
   20.5196   -1.5463  -10.0970 C   0  0  0  0  0  0  0  0  0  0  0  0
   19.5035   -2.4620  -10.0032 F   0  0  0  0  0  0  0  0  0  0  0  0
   20.2537   -0.2186  -10.3610 C   0  0  0  0  0  0  0  0  0  0  0  0
   21.2930    0.6842  -10.4508 C   0  0  0  0  0  0  0  0  0  0  0  0
   22.6237    0.3088  -10.2838 C   0  0  0  0  0  0  0  0  0  0  0  0
   23.8323    0.9840  -10.3191 O   0  0  0  0  0  0  0  0  0  0  0  0
  2  1  1  1
  2  3  2  0
  2  4  2  0
  5  2  1  1
  5  6  1  0
  6  7  1  1
  7  8  1  1
  8  9  1  1
  9 10  1  1
 10 11  1  0
 11 12  2  0
 12 13  1  0
 13 14  1  0
 13 15  2  0
 15 16  1  0
 16 17  2  0
 17 18  1  0
  9  5  1  0
 17 11  1  0
  9 18  1  0
M  END
$$$$
