_rank7
     RDKit          3D

 18 20  0  0  0  0  0  0  0  0999 V2000
   28.6069    0.2045   -8.4191 C   0  0  0  0  0  0  0  0  0  0  0  0
   26.8112    0.2329   -8.5073 S   0  0  1  0  0  6  0  0  0  0  0  0
   26.3530   -1.0416   -7.8524 O   0  0  0  0  0  0  0  0  0  0  0  0
   26.2612    1.3652   -7.7407 O   0  0  0  0  0  0  0  0  0  0  0  0
   26.3594    0.1817  -10.1905 C   0  0  1  0  0  0  0  0  0  0  0  0
   27.2446   -0.7565  -10.9832 C   0  0  0  0  0  0  0  0  0  0  0  0
   26.4190   -0.8984  -12.2690 C   0  0  0  0  0  0  0  0  0  0  0  0
   25.0581   -1.2184  -11.6901 C   0  0  0  0  0  0  0  0  0  0  0  0
   24.9819   -0.2659  -10.4944 C   0  0  1  0  0  0  0  0  0  0  0  0
   24.2672   -0.8842   -9.4350 N   0  0  0  0  0  0  0  0  0  0  0  0
   22.8880   -0.7088   -9.7397 C   0  0  0  0  0  0  0  0  0  0  0  0
   21.7112   -1.3215   -9.3420 C   0  0  0  0  0  0  0  0  0  0  0  0
   20.4746   -0.9469   -9.8029 C   0  0  0  0  0  0  0  0  0  0  0  0
   19.3372   -1.5847   -9.3792 F   0  0  0  0  0  0  0  0  0  0  0  0
   20.4080    0.0927  -10.7073 C   0  0  0  0  0  0  0  0  0  0  0  0
   21.5663    0.7190  -11.1187 C   0  0  0  0  0  0  0  0  0  0  0  0
   22.8237    0.3421  -10.6535 C   0  0  0  0  0  0  0  0  0  0  0  0
   24.1156    0.7819  -10.8892 O   0  0  0  0  0  0  0  0  0  0  0  0
  2  1  1  6
  2  3  2  0
  2  4  2  0
  5  2  1  1
  5  6  1  0
  6  7  1  1
  7  8  1  1
  8  9  1  1
  9 10  1  1
 10 11  1  0
 11 12  2  0
 12 13  1  0
 13 14  1  0
 13 15  2  0
 15 16  1  0
 16 17  2  0
 17 18  1  0
  9  5  1  0
 17 11  1  0
  9 18  1  0
M  END
$$$$
