_rank12
     RDKit          3D

 18 20  0  0  0  0  0  0  0  0999 V2000
   28.4678    0.9630   -7.9961 C   0  0  0  0  0  0  0  0  0  0  0  0
   26.7724    0.4838   -8.3550 S   0  0  1  0  0  6  0  0  0  0  0  0
   26.4059   -0.5280   -7.3037 O   0  0  0  0  0  0  0  0  0  0  0  0
   25.8582    1.6324   -8.2237 O   0  0  0  0  0  0  0  0  0  0  0  0
   26.7595   -0.3063   -9.9093 C   0  0  1  0  0  0  0  0  0  0  0  0
   27.7901   -1.4126   -9.9875 C   0  0  0  0  0  0  0  0  0  0  0  0
   27.3127   -2.1493  -11.2463 C   0  0  0  0  0  0  0  0  0  0  0  0
   25.8414   -2.3098  -10.9317 C   0  0  0  0  0  0  0  0  0  0  0  0
   25.4917   -0.9538  -10.3140 C   0  0  1  0  0  0  0  0  0  0  0  0
   24.5157   -1.1283   -9.2980 N   0  0  0  0  0  0  0  0  0  0  0  0
   23.2637   -1.2130   -9.9697 C   0  0  0  0  0  0  0  0  0  0  0  0
   22.0081   -1.6988   -9.6440 C   0  0  0  0  0  0  0  0  0  0  0  0
   20.9390   -1.6570  -10.5027 C   0  0  0  0  0  0  0  0  0  0  0  0
   19.7143   -2.1512  -10.1342 F   0  0  0  0  0  0  0  0  0  0  0  0
   21.1319   -1.1022  -11.7509 C   0  0  0  0  0  0  0  0  0  0  0  0
   22.3735   -0.6115  -12.0988 C   0  0  0  0  0  0  0  0  0  0  0  0
   23.4615   -0.6518  -11.2304 C   0  0  0  0  0  0  0  0  0  0  0  0
   24.7827   -0.2447  -11.3134 O   0  0  0  0  0  0  0  0  0  0  0  0
  2  1  1  1
  2  3  2  0
  2  4  2  0
  5  2  1  1
  5  6  1  0
  6  7  1  1
  7  8  1  1
  8  9  1  1
  9 10  1  1
 10 11  1  0
 11 12  2  0
 12 13  1  0
 13 14  1  0
 13 15  2  0
 15 16  1  0
 16 17  2  0
 17 18  1  0
  9  5  1  0
 17 11  1  0
  9 18  1  0
M  END
$$$$
