_rank18
     RDKit          3D

 18 20  0  0  0  0  0  0  0  0999 V2000
   21.4010    1.5611  -10.4219 C   0  0  0  0  0  0  0  0  0  0  0  0
   21.3807   -0.1074   -9.7520 S   0  0  1  0  0  6  0  0  0  0  0  0
   21.9173    0.0115   -8.3515 O   0  0  0  0  0  0  0  0  0  0  0  0
   20.0047   -0.6296   -9.6726 O   0  0  0  0  0  0  0  0  0  0  0  0
   22.4916   -1.0713  -10.6885 C   0  0  1  0  0  0  0  0  0  0  0  0
   22.2711   -0.8988  -12.1764 C   0  0  0  0  0  0  0  0  0  0  0  0
   23.5655   -1.5160  -12.7230 C   0  0  0  0  0  0  0  0  0  0  0  0
   24.5935   -0.7983  -11.8759 C   0  0  0  0  0  0  0  0  0  0  0  0
   23.9332   -0.7981  -10.4951 C   0  0  1  0  0  0  0  0  0  0  0  0
   24.2656    0.3978   -9.8060 N   0  0  0  0  0  0  0  0  0  0  0  0
   25.5597    0.1834   -9.2538 C   0  0  0  0  0  0  0  0  0  0  0  0
   26.5721    1.0032   -8.7831 C   0  0  0  0  0  0  0  0  0  0  0  0
   27.7588    0.5250   -8.2879 C   0  0  0  0  0  0  0  0  0  0  0  0
   28.7318    1.3772   -7.8331 F   0  0  0  0  0  0  0  0  0  0  0  0
   27.9456   -0.8416   -8.2607 C   0  0  0  0  0  0  0  0  0  0  0  0
   26.9519   -1.6790   -8.7239 C   0  0  0  0  0  0  0  0  0  0  0  0
   25.7458   -1.1980   -9.2274 C   0  0  0  0  0  0  0  0  0  0  0  0
   24.6063   -1.7917   -9.7442 O   0  0  0  0  0  0  0  0  0  0  0  0
  2  1  1  6
  2  3  2  0
  2  4  2  0
  5  2  1  1
  5  6  1  0
  6  7  1  1
  7  8  1  1
  8  9  1  1
  9 10  1  1
 10 11  1  0
 11 12  2  0
 12 13  1  0
 13 14  1  0
 13 15  2  0
 15 16  1  0
 16 17  2  0
 17 18  1  0
  9  5  1  0
 17 11  1  0
  9 18  1  0
M  END
$$$$
