_rank13
     RDKit          3D

 18 20  0  0  0  0  0  0  0  0999 V2000
   20.0005   -0.2478  -11.2391 C   0  0  0  0  0  0  0  0  0  0  0  0
   21.4166   -0.7490  -10.2509 S   0  0  1  0  0  6  0  0  0  0  0  0
   21.7633    0.4453   -9.4043 O   0  0  0  0  0  0  0  0  0  0  0  0
   21.0668   -1.8625   -9.3508 O   0  0  0  0  0  0  0  0  0  0  0  0
   22.7434   -1.0578  -11.3391 C   0  0  1  0  0  0  0  0  0  0  0  0
   22.5361   -0.3925  -12.6832 C   0  0  0  0  0  0  0  0  0  0  0  0
   23.9521   -0.4953  -13.2660 C   0  0  0  0  0  0  0  0  0  0  0  0
   24.7667    0.0438  -12.1105 C   0  0  0  0  0  0  0  0  0  0  0  0
   24.0806   -0.5982  -10.9023 C   0  0  1  0  0  0  0  0  0  0  0  0
   24.1155    0.2967   -9.8008 N   0  0  0  0  0  0  0  0  0  0  0  0
   25.4071    0.1518   -9.2206 C   0  0  0  0  0  0  0  0  0  0  0  0
   26.1953    0.9202   -8.3799 C   0  0  0  0  0  0  0  0  0  0  0  0
   27.4430    0.5358   -7.9584 C   0  0  0  0  0  0  0  0  0  0  0  0
   28.1860    1.3318   -7.1253 F   0  0  0  0  0  0  0  0  0  0  0  0
   27.9299   -0.6778   -8.3980 C   0  0  0  0  0  0  0  0  0  0  0  0
   27.1636   -1.4612   -9.2360 C   0  0  0  0  0  0  0  0  0  0  0  0
   25.8966   -1.0751   -9.6664 C   0  0  0  0  0  0  0  0  0  0  0  0
   24.9354   -1.6462  -10.4837 O   0  0  0  0  0  0  0  0  0  0  0  0
  2  1  1  6
  2  3  2  0
  2  4  2  0
  5  2  1  1
  5  6  1  0
  6  7  1  1
  7  8  1  1
  8  9  1  1
  9 10  1  1
 10 11  1  0
 11 12  2  0
 12 13  1  0
 13 14  1  0
 13 15  2  0
 15 16  1  0
 16 17  2  0
 17 18  1  0
  9  5  1  0
 17 11  1  0
  9 18  1  0
M  END
$$$$
