_rank1
     RDKit          3D

 18 20  0  0  0  0  0  0  0  0999 V2000
   28.4737    0.1771   -8.5011 C   0  0  0  0  0  0  0  0  0  0  0  0
   26.7363   -0.2615   -8.6489 S   0  0  1  0  0  6  0  0  0  0  0  0
   26.7063   -1.7599   -8.7807 O   0  0  0  0  0  0  0  0  0  0  0  0
   25.9917    0.1062   -7.4312 O   0  0  0  0  0  0  0  0  0  0  0  0
   26.1349    0.4348  -10.1299 C   0  0  1  0  0  0  0  0  0  0  0  0
   27.0515    0.1478  -11.3003 C   0  0  0  0  0  0  0  0  0  0  0  0
   26.1308    0.5155  -12.4717 C   0  0  0  0  0  0  0  0  0  0  0  0
   24.8834   -0.2537  -12.0951 C   0  0  0  0  0  0  0  0  0  0  0  0
   24.8024   -0.0213  -10.5845 C   0  0  1  0  0  0  0  0  0  0  0  0
   24.2769   -1.1775   -9.9500 N   0  0  0  0  0  0  0  0  0  0  0  0
   22.8637   -1.0966  -10.0992 C   0  0  0  0  0  0  0  0  0  0  0  0
   21.8177   -2.0017  -10.0282 C   0  0  0  0  0  0  0  0  0  0  0  0
   20.5050   -1.6513  -10.2186 C   0  0  0  0  0  0  0  0  0  0  0  0
   19.5036   -2.5843  -10.1382 F   0  0  0  0  0  0  0  0  0  0  0  0
   20.2207   -0.3297  -10.4942 C   0  0  0  0  0  0  0  0  0  0  0  0
   21.2456    0.5907  -10.5700 C   0  0  0  0  0  0  0  0  0  0  0  0
   22.5794    0.2396  -10.3774 C   0  0  0  0  0  0  0  0  0  0  0  0
   23.7765    0.9357  -10.3947 O   0  0  0  0  0  0  0  0  0  0  0  0
  2  1  1  1
  2  3  2  0
  2  4  2  0
  5  2  1  1
  5  6  1  0
  6  7  1  1
  7  8  1  1
  8  9  1  1
  9 10  1  1
 10 11  1  0
 11 12  2  0
 12 13  1  0
 13 14  1  0
 13 15  2  0
 15 16  1  0
 16 17  2  0
 17 18  1  0
  9  5  1  0
 17 11  1  0
  9 18  1  0
M  END
$$$$
