_rank14
     RDKit          3D

 20 21  0  0  0  0  0  0  0  0999 V2000
   24.8447    0.8067  -12.6711 C   0  0  0  0  0  0  0  0  0  0  0  0
   26.1212    0.0846  -12.2654 C   0  0  2  0  0  0  0  0  0  0  0  0
   26.3667   -1.0870  -13.0265 N   0  0  0  0  0  0  0  0  0  0  0  0
   26.1743   -0.2067  -10.8290 C   0  0  0  0  0  0  0  0  0  0  0  0
   27.3717   -0.1093  -10.1622 C   0  0  0  0  0  0  0  0  0  0  0  0
   27.4815   -0.3870   -8.8063 C   0  0  0  0  0  0  0  0  0  0  0  0
   29.1614   -0.2589   -7.9060 Br  0  0  0  0  0  0  0  0  0  0  0  0
   26.3431   -0.7709   -8.1406 C   0  0  0  0  0  0  0  0  0  0  0  0
   25.1304   -0.8789   -8.7734 C   0  0  0  0  0  0  0  0  0  0  0  0
   25.0223   -0.6033  -10.1218 C   0  0  0  0  0  0  0  0  0  0  0  0
   23.8877   -0.6629  -10.8641 O   0  0  0  0  0  0  0  0  0  0  0  0
   22.5928   -0.3929  -10.5627 C   0  0  0  0  0  0  0  0  0  0  0  0
   21.6345   -1.4081  -10.5051 C   0  0  0  0  0  0  0  0  0  0  0  0
   20.3337   -1.1273  -10.2024 C   0  0  0  0  0  0  0  0  0  0  0  0
   19.3929   -2.1140  -10.1312 F   0  0  0  0  0  0  0  0  0  0  0  0
   19.8978    0.1550   -9.9434 C   0  0  0  0  0  0  0  0  0  0  0  0
   20.8310    1.1531   -9.9997 C   0  0  0  0  0  0  0  0  0  0  0  0
   20.3357    2.5070   -9.7817 C   0  0  0  0  0  0  0  0  0  0  0  0
   19.9134    3.6017   -9.6090 N   0  0  0  0  0  0  0  0  0  0  0  0
   22.1627    0.9094  -10.3011 C   0  0  0  0  0  0  0  0  0  0  0  0
  1  2  1  6
  2  3  1  6
  2  4  1  0
  4  5  2  0
  5  6  1  0
  6  7  1  0
  6  8  2  0
  8  9  1  0
  9 10  2  0
 10 11  1  0
 11 12  1  0
 12 13  2  0
 13 14  1  0
 14 15  1  0
 14 16  2  0
 16 17  1  0
 17 18  1  0
 18 19  3  0
 17 20  2  0
 10  4  1  0
 20 12  1  0
M  END
$$$$
