_rank20
     RDKit          3D

 20 21  0  0  0  0  0  0  0  0999 V2000
   25.9089   -2.3998   -8.6210 C   0  0  0  0  0  0  0  0  0  0  0  0
   25.1361   -1.0920   -8.7110 C   0  0  2  0  0  0  0  0  0  0  0  0
   24.4499   -0.7648   -7.5134 N   0  0  0  0  0  0  0  0  0  0  0  0
   24.2264   -1.0505   -9.8606 C   0  0  0  0  0  0  0  0  0  0  0  0
   23.1627   -1.9185   -9.9140 C   0  0  0  0  0  0  0  0  0  0  0  0
   22.2791   -1.9317  -10.9849 C   0  0  0  0  0  0  0  0  0  0  0  0
   20.8168   -3.1594  -11.0421 Br  0  0  0  0  0  0  0  0  0  0  0  0
   22.5033   -1.0414  -12.0066 C   0  0  0  0  0  0  0  0  0  0  0  0
   23.5547   -0.1601  -11.9874 C   0  0  0  0  0  0  0  0  0  0  0  0
   24.4333   -0.1482  -10.9225 C   0  0  0  0  0  0  0  0  0  0  0  0
   25.5039    0.6727  -10.7753 O   0  0  0  0  0  0  0  0  0  0  0  0
   25.7251    1.9522  -11.1684 C   0  0  0  0  0  0  0  0  0  0  0  0
   24.9401    2.5539  -12.1553 C   0  0  0  0  0  0  0  0  0  0  0  0
   25.1706    3.8412  -12.5458 C   0  0  0  0  0  0  0  0  0  0  0  0
   24.4009    4.4417  -13.5001 F   0  0  0  0  0  0  0  0  0  0  0  0
   26.1778    4.6078  -11.9987 C   0  0  0  0  0  0  0  0  0  0  0  0
   26.9503    4.0238  -11.0332 C   0  0  0  0  0  0  0  0  0  0  0  0
   28.0462    4.8326  -10.5128 C   0  0  0  0  0  0  0  0  0  0  0  0
   28.9452    5.4923  -10.1090 N   0  0  0  0  0  0  0  0  0  0  0  0
   26.7473    2.7197  -10.6068 C   0  0  0  0  0  0  0  0  0  0  0  0
  1  2  1  6
  2  3  1  1
  2  4  1  0
  4  5  2  0
  5  6  1  0
  6  7  1  0
  6  8  2  0
  8  9  1  0
  9 10  2  0
 10 11  1  0
 11 12  1  0
 12 13  2  0
 13 14  1  0
 14 15  1  0
 14 16  2  0
 16 17  1  0
 17 18  1  0
 18 19  3  0
 17 20  2  0
 10  4  1  0
 20 12  1  0
M  END
$$$$
