_rank10
     RDKit          3D

 20 21  0  0  0  0  0  0  0  0999 V2000
   25.8072   -0.2946  -13.3003 C   0  0  0  0  0  0  0  0  0  0  0  0
   25.8402    0.8149  -12.2594 C   0  0  2  0  0  0  0  0  0  0  0  0
   26.9107    1.7264  -12.4477 N   0  0  0  0  0  0  0  0  0  0  0  0
   25.8282    0.3022  -10.8855 C   0  0  0  0  0  0  0  0  0  0  0  0
   26.9892    0.3074  -10.1507 C   0  0  0  0  0  0  0  0  0  0  0  0
   27.0376   -0.1787   -8.8510 C   0  0  0  0  0  0  0  0  0  0  0  0
   28.6684   -0.1743   -7.8562 Br  0  0  0  0  0  0  0  0  0  0  0  0
   25.8755   -0.6757   -8.3133 C   0  0  0  0  0  0  0  0  0  0  0  0
   24.6978   -0.6969   -9.0170 C   0  0  0  0  0  0  0  0  0  0  0  0
   24.6507   -0.2140  -10.3095 C   0  0  0  0  0  0  0  0  0  0  0  0
   23.5555   -0.1693  -11.1095 O   0  0  0  0  0  0  0  0  0  0  0  0
   22.2339   -0.3254  -10.8456 C   0  0  0  0  0  0  0  0  0  0  0  0
   21.4878    0.6945  -10.2495 C   0  0  0  0  0  0  0  0  0  0  0  0
   20.1590    0.5284   -9.9863 C   0  0  0  0  0  0  0  0  0  0  0  0
   19.4189    1.5237   -9.4159 F   0  0  0  0  0  0  0  0  0  0  0  0
   19.4888   -0.6388  -10.2863 C   0  0  0  0  0  0  0  0  0  0  0  0
   20.2142   -1.6412  -10.8685 C   0  0  0  0  0  0  0  0  0  0  0  0
   19.4992   -2.8865  -11.1213 C   0  0  0  0  0  0  0  0  0  0  0  0
   18.9355   -3.9101  -11.3235 N   0  0  0  0  0  0  0  0  0  0  0  0
   21.5652   -1.5114  -11.1546 C   0  0  0  0  0  0  0  0  0  0  0  0
  1  2  1  6
  2  3  1  6
  2  4  1  0
  4  5  2  0
  5  6  1  0
  6  7  1  0
  6  8  2  0
  8  9  1  0
  9 10  2  0
 10 11  1  0
 11 12  1  0
 12 13  2  0
 13 14  1  0
 14 15  1  0
 14 16  2  0
 16 17  1  0
 17 18  1  0
 18 19  3  0
 17 20  2  0
 10  4  1  0
 20 12  1  0
M  END
$$$$
