_rank19
     RDKit          3D

 20 21  0  0  0  0  0  0  0  0999 V2000
   22.0319    0.3204  -13.9660 C   0  0  0  0  0  0  0  0  0  0  0  0
   22.4195   -0.8371  -13.0575 C   0  0  2  0  0  0  0  0  0  0  0  0
   22.0018   -2.0995  -13.5515 N   0  0  0  0  0  0  0  0  0  0  0  0
   21.9718   -0.6450  -11.6742 C   0  0  0  0  0  0  0  0  0  0  0  0
   20.6329   -0.4829  -11.4122 C   0  0  0  0  0  0  0  0  0  0  0  0
   20.1559   -0.2837  -10.1236 C   0  0  0  0  0  0  0  0  0  0  0  0
   18.2904   -0.0455   -9.7881 Br  0  0  0  0  0  0  0  0  0  0  0  0
   21.0742   -0.2494   -9.1028 C   0  0  0  0  0  0  0  0  0  0  0  0
   22.4186   -0.4076   -9.3266 C   0  0  0  0  0  0  0  0  0  0  0  0
   22.8922   -0.6048  -10.6083 C   0  0  0  0  0  0  0  0  0  0  0  0
   24.1893   -0.7821  -10.9657 O   0  0  0  0  0  0  0  0  0  0  0  0
   25.3200   -0.9258  -10.2299 C   0  0  0  0  0  0  0  0  0  0  0  0
   25.7753   -2.1874   -9.8384 C   0  0  0  0  0  0  0  0  0  0  0  0
   26.9132   -2.3227   -9.0970 C   0  0  0  0  0  0  0  0  0  0  0  0
   27.3728   -3.5518   -8.7206 F   0  0  0  0  0  0  0  0  0  0  0  0
   27.6645   -1.2381   -8.6961 C   0  0  0  0  0  0  0  0  0  0  0  0
   27.2231   -0.0006   -9.0752 C   0  0  0  0  0  0  0  0  0  0  0  0
   27.9996    1.1338   -8.5893 C   0  0  0  0  0  0  0  0  0  0  0  0
   28.6376    2.0603   -8.2137 N   0  0  0  0  0  0  0  0  0  0  0  0
   26.0737    0.1795   -9.8304 C   0  0  0  0  0  0  0  0  0  0  0  0
  1  2  1  6
  2  3  1  6
  2  4  1  0
  4  5  2  0
  5  6  1  0
  6  7  1  0
  6  8  2  0
  8  9  1  0
  9 10  2  0
 10 11  1  0
 11 12  1  0
 12 13  2  0
 13 14  1  0
 14 15  1  0
 14 16  2  0
 16 17  1  0
 17 18  1  0
 18 19  3  0
 17 20  2  0
 10  4  1  0
 20 12  1  0
M  END
$$$$
