_rank18
     RDKit          3D

 20 21  0  0  0  0  0  0  0  0999 V2000
   21.8782   -0.5816  -14.0401 C   0  0  0  0  0  0  0  0  0  0  0  0
   22.5557   -1.1669  -12.8098 C   0  0  2  0  0  0  0  0  0  0  0  0
   22.4883   -2.5827  -12.7548 N   0  0  0  0  0  0  0  0  0  0  0  0
   22.0693   -0.5734  -11.5600 C   0  0  0  0  0  0  0  0  0  0  0  0
   20.7172   -0.4929  -11.3298 C   0  0  0  0  0  0  0  0  0  0  0  0
   20.2021    0.0717  -10.1707 C   0  0  0  0  0  0  0  0  0  0  0  0
   18.3172    0.1853   -9.8821 Br  0  0  0  0  0  0  0  0  0  0  0  0
   21.0955    0.5581   -9.2478 C   0  0  0  0  0  0  0  0  0  0  0  0
   22.4521    0.4949   -9.4434 C   0  0  0  0  0  0  0  0  0  0  0  0
   22.9634   -0.0661  -10.5966 C   0  0  0  0  0  0  0  0  0  0  0  0
   24.2772   -0.1979  -10.9102 O   0  0  0  0  0  0  0  0  0  0  0  0
   25.3722   -0.4320  -10.1442 C   0  0  0  0  0  0  0  0  0  0  0  0
   25.3452   -1.3677   -9.1068 C   0  0  0  0  0  0  0  0  0  0  0  0
   26.4511   -1.5959   -8.3402 C   0  0  0  0  0  0  0  0  0  0  0  0
   26.4382   -2.5172   -7.3329 F   0  0  0  0  0  0  0  0  0  0  0  0
   27.6383   -0.9239   -8.5412 C   0  0  0  0  0  0  0  0  0  0  0  0
   27.6702   -0.0058   -9.5541 C   0  0  0  0  0  0  0  0  0  0  0  0
   28.9165    0.7351   -9.7089 C   0  0  0  0  0  0  0  0  0  0  0  0
   29.9276    1.3372   -9.8557 N   0  0  0  0  0  0  0  0  0  0  0  0
   26.5696    0.2537  -10.3572 C   0  0  0  0  0  0  0  0  0  0  0  0
  1  2  1  6
  2  3  1  1
  2  4  1  0
  4  5  2  0
  5  6  1  0
  6  7  1  0
  6  8  2  0
  8  9  1  0
  9 10  2  0
 10 11  1  0
 11 12  1  0
 12 13  2  0
 13 14  1  0
 14 15  1  0
 14 16  2  0
 16 17  1  0
 17 18  1  0
 18 19  3  0
 17 20  2  0
 10  4  1  0
 20 12  1  0
M  END
$$$$
