_rank12
     RDKit          3D

 20 21  0  0  0  0  0  0  0  0999 V2000
   26.3981    1.6444  -12.8641 C   0  0  0  0  0  0  0  0  0  0  0  0
   25.7194    0.3406  -12.4704 C   0  0  2  0  0  0  0  0  0  0  0  0
   24.4074    0.2129  -12.9944 N   0  0  0  0  0  0  0  0  0  0  0  0
   25.7259    0.1146  -11.0213 C   0  0  0  0  0  0  0  0  0  0  0  0
   26.9153   -0.1336  -10.3800 C   0  0  0  0  0  0  0  0  0  0  0  0
   26.9774   -0.3681   -9.0130 C   0  0  0  0  0  0  0  0  0  0  0  0
   28.6425   -0.7260   -8.1480 Br  0  0  0  0  0  0  0  0  0  0  0  0
   25.7979   -0.3481   -8.3093 C   0  0  0  0  0  0  0  0  0  0  0  0
   24.5917   -0.1037   -8.9157 C   0  0  0  0  0  0  0  0  0  0  0  0
   24.5309    0.1287  -10.2753 C   0  0  0  0  0  0  0  0  0  0  0  0
   23.4104    0.3897  -10.9950 O   0  0  0  0  0  0  0  0  0  0  0  0
   22.1011    0.1211  -10.7620 C   0  0  0  0  0  0  0  0  0  0  0  0
   21.1803    1.1463  -10.5303 C   0  0  0  0  0  0  0  0  0  0  0  0
   19.8653    0.8669  -10.2954 C   0  0  0  0  0  0  0  0  0  0  0  0
   18.9560    1.8623  -10.0807 F   0  0  0  0  0  0  0  0  0  0  0  0
   19.3791   -0.4232  -10.2707 C   0  0  0  0  0  0  0  0  0  0  0  0
   20.2760   -1.4309  -10.4954 C   0  0  0  0  0  0  0  0  0  0  0  0
   19.7513   -2.7882  -10.4047 C   0  0  0  0  0  0  0  0  0  0  0  0
   19.3053   -3.8849  -10.3353 N   0  0  0  0  0  0  0  0  0  0  0  0
   21.6196   -1.1892  -10.7403 C   0  0  0  0  0  0  0  0  0  0  0  0
  1  2  1  6
  2  3  1  1
  2  4  1  0
  4  5  2  0
  5  6  1  0
  6  7  1  0
  6  8  2  0
  8  9  1  0
  9 10  2  0
 10 11  1  0
 11 12  1  0
 12 13  2  0
 13 14  1  0
 14 15  1  0
 14 16  2  0
 16 17  1  0
 17 18  1  0
 18 19  3  0
 17 20  2  0
 10  4  1  0
 20 12  1  0
M  END
$$$$
