_rank2
     RDKit          3D

 20 21  0  0  0  0  0  0  0  0999 V2000
   26.5926   -0.2691  -13.1451 C   0  0  0  0  0  0  0  0  0  0  0  0
   25.6382    0.5770  -12.3152 C   0  0  2  0  0  0  0  0  0  0  0  0
   25.8516    1.9712  -12.4663 N   0  0  0  0  0  0  0  0  0  0  0  0
   25.6355    0.2010  -10.8977 C   0  0  0  0  0  0  0  0  0  0  0  0
   26.7819    0.3506  -10.1553 C   0  0  0  0  0  0  0  0  0  0  0  0
   26.8391   -0.0024   -8.8138 C   0  0  0  0  0  0  0  0  0  0  0  0
   28.4503    0.2012   -7.8079 Br  0  0  0  0  0  0  0  0  0  0  0  0
   25.7012   -0.5164   -8.2414 C   0  0  0  0  0  0  0  0  0  0  0  0
   24.5385   -0.6798   -8.9514 C   0  0  0  0  0  0  0  0  0  0  0  0
   24.4828   -0.3293  -10.2855 C   0  0  0  0  0  0  0  0  0  0  0  0
   23.3999   -0.4315  -11.0971 O   0  0  0  0  0  0  0  0  0  0  0  0
   22.0791   -0.5884  -10.8297 C   0  0  0  0  0  0  0  0  0  0  0  0
   21.4308   -1.8037  -11.0643 C   0  0  0  0  0  0  0  0  0  0  0  0
   20.1014   -1.9524  -10.7937 C   0  0  0  0  0  0  0  0  0  0  0  0
   19.4623   -3.1395  -11.0076 F   0  0  0  0  0  0  0  0  0  0  0  0
   19.3341   -0.9262  -10.2841 C   0  0  0  0  0  0  0  0  0  0  0  0
   19.9629    0.2662  -10.0537 C   0  0  0  0  0  0  0  0  0  0  0  0
   19.1191    1.3534   -9.5721 C   0  0  0  0  0  0  0  0  0  0  0  0
   18.4198    2.2346   -9.1966 N   0  0  0  0  0  0  0  0  0  0  0  0
   21.3120    0.4574  -10.3128 C   0  0  0  0  0  0  0  0  0  0  0  0
  1  2  1  6
  2  3  1  1
  2  4  1  0
  4  5  2  0
  5  6  1  0
  6  7  1  0
  6  8  2  0
  8  9  1  0
  9 10  2  0
 10 11  1  0
 11 12  1  0
 12 13  2  0
 13 14  1  0
 14 15  1  0
 14 16  2  0
 16 17  1  0
 17 18  1  0
 18 19  3  0
 17 20  2  0
 10  4  1  0
 20 12  1  0
M  END
$$$$
