_rank18
     RDKit          3D

 19 20  0  0  0  0  0  0  0  0999 V2000
   24.1326    0.3843  -14.3481 C   0  0  0  0  0  0  0  0  0  0  0  0
   23.0467   -0.0877  -13.4308 C   0  0  2  0  0  0  0  0  0  0  0  0
   21.8237    0.6064  -13.7785 N   0  0  0  0  0  0  0  0  0  0  0  0
   23.3821    0.0743  -11.9715 C   0  0  2  0  0  0  0  0  0  0  0  0
   24.6183   -0.4161  -11.6081 O   0  0  0  0  0  0  0  0  0  0  0  0
   25.2732   -0.2575  -10.4002 C   0  0  0  0  0  0  0  0  0  0  0  0
   24.7278    0.6049   -9.4385 C   0  0  0  0  0  0  0  0  0  0  0  0
   25.3254    0.8111   -8.2147 C   0  0  0  0  0  0  0  0  0  0  0  0
   24.7801    1.6494   -7.3006 F   0  0  0  0  0  0  0  0  0  0  0  0
   26.4930    0.1693   -7.8903 C   0  0  0  0  0  0  0  0  0  0  0  0
   27.0590   -0.6854   -8.8086 C   0  0  0  0  0  0  0  0  0  0  0  0
   28.2941   -1.3892   -8.5148 C   0  0  0  0  0  0  0  0  0  0  0  0
   29.2743   -1.9623   -8.2954 N   0  0  0  0  0  0  0  0  0  0  0  0
   26.4365   -0.8768  -10.0371 C   0  0  0  0  0  0  0  0  0  0  0  0
   22.2695   -0.5809  -11.1808 C   0  0  0  0  0  0  0  0  0  0  0  0
   21.9881   -1.8758  -11.1928 C   0  0  0  0  0  0  0  0  0  0  0  0
   20.9601   -2.3544  -10.4401 C   0  0  0  0  0  0  0  0  0  0  0  0
   20.3446   -0.8274   -9.6495 S   0  0  0  0  0  0  0  0  0  0  0  0
   21.4698    0.2329  -10.3728 C   0  0  0  0  0  0  0  0  0  0  0  0
  1  2  1  1
  2  3  1  6
  2  4  1  0
  4  5  1  6
  5  6  1  0
  6  7  2  0
  7  8  1  0
  8  9  1  0
  8 10  2  0
 10 11  1  0
 11 12  1  0
 12 13  3  0
 11 14  2  0
  4 15  1  0
 15 16  1  0
 16 17  2  0
 17 18  1  0
 18 19  1  0
 14  6  1  0
 19 15  2  0
M  END
$$$$
