_rank15
     RDKit          3D

 19 20  0  0  0  0  0  0  0  0999 V2000
   25.6462    1.1096   -9.9743 C   0  0  0  0  0  0  0  0  0  0  0  0
   25.3328    0.0035  -10.9343 C   0  0  2  0  0  0  0  0  0  0  0  0
   26.1846    0.1543  -12.0962 N   0  0  0  0  0  0  0  0  0  0  0  0
   23.8777   -0.0639  -11.3170 C   0  0  2  0  0  0  0  0  0  0  0  0
   23.0229   -0.3597  -10.2765 O   0  0  0  0  0  0  0  0  0  0  0  0
   21.6423   -0.4378  -10.3076 C   0  0  0  0  0  0  0  0  0  0  0  0
   21.0374   -1.6461  -10.6821 C   0  0  0  0  0  0  0  0  0  0  0  0
   19.6693   -1.7962  -10.7352 C   0  0  0  0  0  0  0  0  0  0  0  0
   19.1067   -2.9736  -11.1000 F   0  0  0  0  0  0  0  0  0  0  0  0
   18.8389   -0.7518  -10.4184 C   0  0  0  0  0  0  0  0  0  0  0  0
   19.3956    0.4505  -10.0460 C   0  0  0  0  0  0  0  0  0  0  0  0
   18.5613    1.5873   -9.7010 C   0  0  0  0  0  0  0  0  0  0  0  0
   17.9031    2.5021   -9.4421 N   0  0  0  0  0  0  0  0  0  0  0  0
   20.7796    0.5769  -10.0001 C   0  0  0  0  0  0  0  0  0  0  0  0
   23.7561   -1.0719  -12.4402 C   0  0  0  0  0  0  0  0  0  0  0  0
   23.2986   -0.8059  -13.6552 C   0  0  0  0  0  0  0  0  0  0  0  0
   23.2329   -1.7950  -14.5877 C   0  0  0  0  0  0  0  0  0  0  0  0
   23.8785   -3.2237  -13.6509 S   0  0  0  0  0  0  0  0  0  0  0  0
   24.1530   -2.3885  -12.1879 C   0  0  0  0  0  0  0  0  0  0  0  0
  1  2  1  1
  2  3  1  6
  2  4  1  0
  4  5  1  1
  5  6  1  0
  6  7  2  0
  7  8  1  0
  8  9  1  0
  8 10  2  0
 10 11  1  0
 11 12  1  0
 12 13  3  0
 11 14  2  0
  4 15  1  0
 15 16  1  0
 16 17  2  0
 17 18  1  0
 18 19  1  0
 14  6  1  0
 19 15  2  0
M  END
$$$$
