_rank17
     RDKit          3D

 19 20  0  0  0  0  0  0  0  0999 V2000
   24.9288    1.9009  -13.8681 C   0  0  0  0  0  0  0  0  0  0  0  0
   26.2165    1.9426  -13.1044 C   0  0  2  0  0  0  0  0  0  0  0  0
   27.1772    1.0991  -13.7856 N   0  0  0  0  0  0  0  0  0  0  0  0
   26.0674    1.5574  -11.6560 C   0  0  2  0  0  0  0  0  0  0  0  0
   26.0095    0.1994  -11.4256 O   0  0  0  0  0  0  0  0  0  0  0  0
   26.0526   -0.4583  -10.2096 C   0  0  0  0  0  0  0  0  0  0  0  0
   26.9160    0.0140   -9.2107 C   0  0  0  0  0  0  0  0  0  0  0  0
   27.0110   -0.5907   -7.9769 C   0  0  0  0  0  0  0  0  0  0  0  0
   27.8526   -0.1166   -7.0267 F   0  0  0  0  0  0  0  0  0  0  0  0
   26.2519   -1.6932   -7.6787 C   0  0  0  0  0  0  0  0  0  0  0  0
   25.3924   -2.1864   -8.6337 C   0  0  0  0  0  0  0  0  0  0  0  0
   24.5669   -3.3507   -8.3688 C   0  0  0  0  0  0  0  0  0  0  0  0
   23.8935   -4.2680   -8.1631 N   0  0  0  0  0  0  0  0  0  0  0  0
   25.3145   -1.5582   -9.8718 C   0  0  0  0  0  0  0  0  0  0  0  0
   24.8363    2.2639  -11.1291 C   0  0  0  0  0  0  0  0  0  0  0  0
   24.8423    3.4139  -10.4706 C   0  0  0  0  0  0  0  0  0  0  0  0
   23.6703    3.9570  -10.0417 C   0  0  0  0  0  0  0  0  0  0  0  0
   22.4593    2.7220  -10.6280 S   0  0  0  0  0  0  0  0  0  0  0  0
   23.5914    1.6660  -11.3468 C   0  0  0  0  0  0  0  0  0  0  0  0
  1  2  1  1
  2  3  1  6
  2  4  1  0
  4  5  1  6
  5  6  1  0
  6  7  2  0
  7  8  1  0
  8  9  1  0
  8 10  2  0
 10 11  1  0
 11 12  1  0
 12 13  3  0
 11 14  2  0
  4 15  1  0
 15 16  1  0
 16 17  2  0
 17 18  1  0
 18 19  1  0
 14  6  1  0
 19 15  2  0
M  END
$$$$
