_rank2
     RDKit          3D

 19 20  0  0  0  0  0  0  0  0999 V2000
   26.9361    1.1178  -11.9851 C   0  0  0  0  0  0  0  0  0  0  0  0
   26.0450    0.0110  -12.4586 C   0  0  2  0  0  0  0  0  0  0  0  0
   25.3069    0.4830  -13.6122 N   0  0  0  0  0  0  0  0  0  0  0  0
   25.1258   -0.5178  -11.3891 C   0  0  2  0  0  0  0  0  0  0  0  0
   24.0111    0.2587  -11.1538 O   0  0  0  0  0  0  0  0  0  0  0  0
   22.7529   -0.1589  -10.7596 C   0  0  0  0  0  0  0  0  0  0  0  0
   22.4516   -1.5281  -10.7846 C   0  0  0  0  0  0  0  0  0  0  0  0
   21.2201   -2.0154  -10.4061 C   0  0  0  0  0  0  0  0  0  0  0  0
   20.9513   -3.3430  -10.4385 F   0  0  0  0  0  0  0  0  0  0  0  0
   20.2310   -1.1639   -9.9851 C   0  0  0  0  0  0  0  0  0  0  0  0
   20.4891    0.1874   -9.9468 C   0  0  0  0  0  0  0  0  0  0  0  0
   19.4766    1.1311   -9.5092 C   0  0  0  0  0  0  0  0  0  0  0  0
   18.6750    1.8794   -9.1419 N   0  0  0  0  0  0  0  0  0  0  0  0
   21.7402    0.6546  -10.3340 C   0  0  0  0  0  0  0  0  0  0  0  0
   25.9542   -0.6961  -10.1344 C   0  0  0  0  0  0  0  0  0  0  0  0
   26.5956   -1.8058   -9.7973 C   0  0  0  0  0  0  0  0  0  0  0  0
   27.3111   -1.8518   -8.6405 C   0  0  0  0  0  0  0  0  0  0  0  0
   27.0456   -0.1701   -7.9796 S   0  0  0  0  0  0  0  0  0  0  0  0
   26.0570    0.3860   -9.2552 C   0  0  0  0  0  0  0  0  0  0  0  0
  1  2  1  1
  2  3  1  6
  2  4  1  0
  4  5  1  1
  5  6  1  0
  6  7  2  0
  7  8  1  0
  8  9  1  0
  8 10  2  0
 10 11  1  0
 11 12  1  0
 12 13  3  0
 11 14  2  0
  4 15  1  0
 15 16  1  0
 16 17  2  0
 17 18  1  0
 18 19  1  0
 14  6  1  0
 19 15  2  0
M  END
$$$$
