_rank6
     RDKit          3D

 19 20  0  0  0  0  0  0  0  0999 V2000
   26.0856   -0.5405  -13.3374 C   0  0  0  0  0  0  0  0  0  0  0  0
   26.0713    0.3361  -12.1231 C   0  0  2  0  0  0  0  0  0  0  0  0
   27.4410    0.5649  -11.7109 N   0  0  0  0  0  0  0  0  0  0  0  0
   25.2364   -0.2137  -10.9966 C   0  0  2  0  0  0  0  0  0  0  0  0
   24.1211    0.5361  -10.6890 O   0  0  0  0  0  0  0  0  0  0  0  0
   22.8640    0.0819  -10.3335 C   0  0  0  0  0  0  0  0  0  0  0  0
   22.6477   -1.2984  -10.2144 C   0  0  0  0  0  0  0  0  0  0  0  0
   21.4226   -1.8216   -9.8644 C   0  0  0  0  0  0  0  0  0  0  0  0
   21.2368   -3.1593   -9.7553 F   0  0  0  0  0  0  0  0  0  0  0  0
   20.3555   -0.9967   -9.6166 C   0  0  0  0  0  0  0  0  0  0  0  0
   20.5287    0.3644   -9.7234 C   0  0  0  0  0  0  0  0  0  0  0  0
   19.4316    1.2811   -9.4718 C   0  0  0  0  0  0  0  0  0  0  0  0
   18.5452    1.9982   -9.2788 N   0  0  0  0  0  0  0  0  0  0  0  0
   21.7752    0.8681  -10.0782 C   0  0  0  0  0  0  0  0  0  0  0  0
   26.1485   -0.3709   -9.7984 C   0  0  0  0  0  0  0  0  0  0  0  0
   26.5731   -1.5281   -9.3118 C   0  0  0  0  0  0  0  0  0  0  0  0
   27.3925   -1.5484   -8.2253 C   0  0  0  0  0  0  0  0  0  0  0  0
   27.5713    0.2340   -7.8694 S   0  0  0  0  0  0  0  0  0  0  0  0
   26.5822    0.7870   -9.1458 C   0  0  0  0  0  0  0  0  0  0  0  0
  1  2  1  1
  2  3  1  1
  2  4  1  0
  4  5  1  1
  5  6  1  0
  6  7  2  0
  7  8  1  0
  8  9  1  0
  8 10  2  0
 10 11  1  0
 11 12  1  0
 12 13  3  0
 11 14  2  0
  4 15  1  0
 15 16  1  0
 16 17  2  0
 17 18  1  0
 18 19  1  0
 14  6  1  0
 19 15  2  0
M  END
$$$$
