_rank11
     RDKit          3D

 19 20  0  0  0  0  0  0  0  0999 V2000
   27.7360    1.6719   -8.7405 C   0  0  0  0  0  0  0  0  0  0  0  0
   26.4455    1.0271   -8.3378 C   0  0  2  0  0  0  0  0  0  0  0  0
   26.7332    0.0178   -7.3393 N   0  0  0  0  0  0  0  0  0  0  0  0
   25.6726    0.4568   -9.4979 C   0  0  2  0  0  0  0  0  0  0  0  0
   24.4740   -0.1323   -9.1558 O   0  0  0  0  0  0  0  0  0  0  0  0
   23.4876   -0.6046  -10.0025 C   0  0  0  0  0  0  0  0  0  0  0  0
   23.5619   -0.3016  -11.3696 C   0  0  0  0  0  0  0  0  0  0  0  0
   22.6158   -0.7382  -12.2703 C   0  0  0  0  0  0  0  0  0  0  0  0
   22.7080   -0.4331  -13.5872 F   0  0  0  0  0  0  0  0  0  0  0  0
   21.5517   -1.4963  -11.8537 C   0  0  0  0  0  0  0  0  0  0  0  0
   21.4443   -1.8143  -10.5190 C   0  0  0  0  0  0  0  0  0  0  0  0
   20.3374   -2.6139  -10.0263 C   0  0  0  0  0  0  0  0  0  0  0  0
   19.4433   -3.2365   -9.6387 N   0  0  0  0  0  0  0  0  0  0  0  0
   22.4124   -1.3617   -9.6294 C   0  0  0  0  0  0  0  0  0  0  0  0
   26.5874   -0.5168  -10.2103 C   0  0  0  0  0  0  0  0  0  0  0  0
   26.8738   -1.7399   -9.7882 C   0  0  0  0  0  0  0  0  0  0  0  0
   27.7132   -2.5292  -10.5125 C   0  0  0  0  0  0  0  0  0  0  0  0
   28.1279   -1.4327  -11.9130 S   0  0  0  0  0  0  0  0  0  0  0  0
   27.1830   -0.1046  -11.4061 C   0  0  0  0  0  0  0  0  0  0  0  0
  1  2  1  1
  2  3  1  1
  2  4  1  0
  4  5  1  1
  5  6  1  0
  6  7  2  0
  7  8  1  0
  8  9  1  0
  8 10  2  0
 10 11  1  0
 11 12  1  0
 12 13  3  0
 11 14  2  0
  4 15  1  0
 15 16  1  0
 16 17  2  0
 17 18  1  0
 18 19  1  0
 14  6  1  0
 19 15  2  0
M  END
$$$$
