_rank10
     RDKit          3D

 19 20  0  0  0  0  0  0  0  0999 V2000
   20.0569   -1.3074  -12.9575 C   0  0  0  0  0  0  0  0  0  0  0  0
   21.3404   -1.9234  -12.4922 C   0  0  2  0  0  0  0  0  0  0  0  0
   21.0256   -3.1350  -11.7633 N   0  0  0  0  0  0  0  0  0  0  0  0
   22.1924   -0.9885  -11.6747 C   0  0  2  0  0  0  0  0  0  0  0  0
   23.3466   -1.5524  -11.1741 O   0  0  0  0  0  0  0  0  0  0  0  0
   24.5604   -0.9333  -10.9364 C   0  0  0  0  0  0  0  0  0  0  0  0
   25.3231   -0.4899  -12.0263 C   0  0  0  0  0  0  0  0  0  0  0  0
   26.5402    0.1342  -11.8647 C   0  0  0  0  0  0  0  0  0  0  0  0
   27.2601    0.5544  -12.9329 F   0  0  0  0  0  0  0  0  0  0  0  0
   27.0557    0.3465  -10.6118 C   0  0  0  0  0  0  0  0  0  0  0  0
   26.3361   -0.0747   -9.5168 C   0  0  0  0  0  0  0  0  0  0  0  0
   26.8369    0.1257   -8.1691 C   0  0  0  0  0  0  0  0  0  0  0  0
   27.2488    0.2983   -7.1025 N   0  0  0  0  0  0  0  0  0  0  0  0
   25.1098   -0.7024   -9.7062 C   0  0  0  0  0  0  0  0  0  0  0  0
   21.3178   -0.4370  -10.5687 C   0  0  0  0  0  0  0  0  0  0  0  0
   20.8765    0.8106  -10.4981 C   0  0  0  0  0  0  0  0  0  0  0  0
   20.0947    1.1963   -9.4530 C   0  0  0  0  0  0  0  0  0  0  0  0
   19.9806   -0.3521   -8.4913 S   0  0  0  0  0  0  0  0  0  0  0  0
   20.9411   -1.3007   -9.5359 C   0  0  0  0  0  0  0  0  0  0  0  0
  1  2  1  1
  2  3  1  1
  2  4  1  0
  4  5  1  1
  5  6  1  0
  6  7  2  0
  7  8  1  0
  8  9  1  0
  8 10  2  0
 10 11  1  0
 11 12  1  0
 12 13  3  0
 11 14  2  0
  4 15  1  0
 15 16  1  0
 16 17  2  0
 17 18  1  0
 18 19  1  0
 14  6  1  0
 19 15  2  0
M  END
$$$$
