_rank1
     RDKit          3D

 19 20  0  0  0  0  0  0  0  0999 V2000
   26.4705    1.6763  -12.3351 C   0  0  0  0  0  0  0  0  0  0  0  0
   26.0646    0.2708  -12.6564 C   0  0  2  0  0  0  0  0  0  0  0  0
   25.5213    0.2497  -13.9991 N   0  0  0  0  0  0  0  0  0  0  0  0
   25.1028   -0.3185  -11.6584 C   0  0  2  0  0  0  0  0  0  0  0  0
   23.9586    0.4234  -11.4557 O   0  0  0  0  0  0  0  0  0  0  0  0
   22.7306   -0.0175  -10.9967 C   0  0  0  0  0  0  0  0  0  0  0  0
   22.4802   -1.3961  -10.9406 C   0  0  0  0  0  0  0  0  0  0  0  0
   21.2811   -1.9064  -10.4947 C   0  0  0  0  0  0  0  0  0  0  0  0
   21.0613   -3.2426  -10.4492 F   0  0  0  0  0  0  0  0  0  0  0  0
   20.2752   -1.0698  -10.0837 C   0  0  0  0  0  0  0  0  0  0  0  0
   20.4836    0.2900  -10.1241 C   0  0  0  0  0  0  0  0  0  0  0  0
   19.4515    1.2188   -9.7004 C   0  0  0  0  0  0  0  0  0  0  0  0
   18.6397    1.9734   -9.3705 N   0  0  0  0  0  0  0  0  0  0  0  0
   21.7028    0.7806  -10.5783 C   0  0  0  0  0  0  0  0  0  0  0  0
   25.8672   -0.5255  -10.3680 C   0  0  0  0  0  0  0  0  0  0  0  0
   26.8360   -1.4123  -10.1912 C   0  0  0  0  0  0  0  0  0  0  0  0
   27.4542   -1.5110   -8.9828 C   0  0  0  0  0  0  0  0  0  0  0  0
   26.5786   -0.2304   -8.0189 S   0  0  0  0  0  0  0  0  0  0  0  0
   25.5334    0.2740   -9.2706 C   0  0  0  0  0  0  0  0  0  0  0  0
  1  2  1  1
  2  3  1  6
  2  4  1  0
  4  5  1  1
  5  6  1  0
  6  7  2  0
  7  8  1  0
  8  9  1  0
  8 10  2  0
 10 11  1  0
 11 12  1  0
 12 13  3  0
 11 14  2  0
  4 15  1  0
 15 16  1  0
 16 17  2  0
 17 18  1  0
 18 19  1  0
 14  6  1  0
 19 15  2  0
M  END
$$$$
