_rank5
     RDKit          3D

 19 20  0  0  0  0  0  0  0  0999 V2000
   25.8796    0.7384  -13.6632 C   0  0  0  0  0  0  0  0  0  0  0  0
   26.4321    0.4385  -12.3038 C   0  0  2  0  0  0  0  0  0  0  0  0
   27.5419   -0.4799  -12.4560 N   0  0  0  0  0  0  0  0  0  0  0  0
   25.4015   -0.0899  -11.3409 C   0  0  2  0  0  0  0  0  0  0  0  0
   24.2012    0.5882  -11.3545 O   0  0  0  0  0  0  0  0  0  0  0  0
   22.9895    0.1807  -10.8267 C   0  0  0  0  0  0  0  0  0  0  0  0
   22.6785   -1.1865  -10.8133 C   0  0  0  0  0  0  0  0  0  0  0  0
   21.4912   -1.6640  -10.3036 C   0  0  0  0  0  0  0  0  0  0  0  0
   21.2121   -2.9898  -10.3011 F   0  0  0  0  0  0  0  0  0  0  0  0
   20.5580   -0.8042   -9.7837 C   0  0  0  0  0  0  0  0  0  0  0  0
   20.8272    0.5455   -9.7793 C   0  0  0  0  0  0  0  0  0  0  0  0
   19.8731    1.4978   -9.2408 C   0  0  0  0  0  0  0  0  0  0  0  0
   19.1031    2.2558   -8.8286 N   0  0  0  0  0  0  0  0  0  0  0  0
   22.0330    1.0027  -10.2995 C   0  0  0  0  0  0  0  0  0  0  0  0
   26.0295   -0.0812   -9.9633 C   0  0  0  0  0  0  0  0  0  0  0  0
   26.5231    0.9898   -9.3587 C   0  0  0  0  0  0  0  0  0  0  0  0
   27.0667    0.8782   -8.1160 C   0  0  0  0  0  0  0  0  0  0  0  0
   26.8549   -0.9051   -7.7836 S   0  0  0  0  0  0  0  0  0  0  0  0
   26.1011   -1.2907   -9.2657 C   0  0  0  0  0  0  0  0  0  0  0  0
  1  2  1  1
  2  3  1  6
  2  4  1  0
  4  5  1  1
  5  6  1  0
  6  7  2  0
  7  8  1  0
  8  9  1  0
  8 10  2  0
 10 11  1  0
 11 12  1  0
 12 13  3  0
 11 14  2  0
  4 15  1  0
 15 16  1  0
 16 17  2  0
 17 18  1  0
 18 19  1  0
 14  6  1  0
 19 15  2  0
M  END
$$$$
