_rank13
     RDKit          3D

 25 27  0  0  0  0  0  0  0  0999 V2000
   28.2789    1.3170   -8.8307 C   0  0  0  0  0  0  0  0  0  0  0  0
   27.3771   -0.1624   -8.5181 S   0  0  2  0  0  6  0  0  0  0  0  0
   27.0170   -0.1986   -7.0620 O   0  0  0  0  0  0  0  0  0  0  0  0
   28.2104   -1.3929   -8.7895 O   0  0  0  0  0  0  0  0  0  0  0  0
   25.9304   -0.2877   -9.4893 C   0  0  0  0  0  0  0  0  0  0  0  0
   24.7369   -0.6415   -8.8967 C   0  0  0  0  0  0  0  0  0  0  0  0
   23.5609   -0.7544   -9.6247 C   0  0  0  0  0  0  0  0  0  0  0  0
   23.6408   -0.4947  -10.9776 C   0  0  0  0  0  0  0  0  0  0  0  0
   22.4542   -0.6054  -11.7306 O   0  0  0  0  0  0  0  0  0  0  0  0
   21.2122   -0.5964  -11.1149 C   0  0  0  0  0  0  0  0  0  0  0  0
   20.7080    0.5233  -10.4761 C   0  0  0  0  0  0  0  0  0  0  0  0
   19.4798    0.5407   -9.8643 C   0  0  0  0  0  0  0  0  0  0  0  0
   19.0190    1.6550   -9.2487 F   0  0  0  0  0  0  0  0  0  0  0  0
   18.7266   -0.6137   -9.8951 C   0  0  0  0  0  0  0  0  0  0  0  0
   19.1738   -1.7766  -10.5209 C   0  0  0  0  0  0  0  0  0  0  0  0
   18.3626   -2.9686  -10.5361 C   0  0  0  0  0  0  0  0  0  0  0  0
   17.6908   -3.9269  -10.5563 N   0  0  0  0  0  0  0  0  0  0  0  0
   20.4122   -1.7202  -11.1120 C   0  0  0  0  0  0  0  0  0  0  0  0
   24.8247   -0.1365  -11.6057 C   0  0  0  0  0  0  0  0  0  0  0  0
   25.9822   -0.0337  -10.8427 C   0  0  0  0  0  0  0  0  0  0  0  0
   27.0895    0.3625  -11.7702 C   0  0  2  0  0  0  0  0  0  0  0  0
   27.2020    1.7339  -11.8972 O   0  0  0  0  0  0  0  0  0  0  0  0
   26.6022   -0.1612  -13.1235 C   0  0  1  0  0  0  0  0  0  0  0  0
   26.7359   -1.5230  -13.1236 F   0  0  0  0  0  0  0  0  0  0  0  0
   25.1186    0.1802  -13.0287 C   0  0  0  0  0  0  0  0  0  0  0  0
  1  2  1  6
  2  3  2  0
  2  4  2  0
  2  5  1  6
  5  6  2  0
  6  7  1  0
  7  8  2  0
  8  9  1  0
  9 10  1  0
 10 11  2  0
 11 12  1  0
 12 13  1  0
 12 14  2  0
 14 15  1  0
 15 16  1  0
 16 17  3  0
 15 18  2  0
  8 19  1  0
 19 20  2  0
 20 21  1  0
 21 22  1  6
 21 23  1  0
 23 24  1  1
 23 25  1  0
 20  5  1  0
 18 10  1  0
 25 19  1  1
M  END
$$$$
