_rank17
     RDKit          3D

 25 27  0  0  0  0  0  0  0  0999 V2000
   28.8793   -1.4250   -9.3890 C   0  0  0  0  0  0  0  0  0  0  0  0
   27.7443   -0.2019   -8.8278 S   0  0  2  0  0  6  0  0  0  0  0  0
   28.4293    1.1325   -8.8654 O   0  0  0  0  0  0  0  0  0  0  0  0
   27.3325   -0.4377   -7.3935 O   0  0  0  0  0  0  0  0  0  0  0  0
   26.2851   -0.1460   -9.7868 C   0  0  0  0  0  0  0  0  0  0  0  0
   25.1140   -0.6698   -9.2819 C   0  0  0  0  0  0  0  0  0  0  0  0
   23.9293   -0.6495  -10.0043 C   0  0  0  0  0  0  0  0  0  0  0  0
   23.9771   -0.0774  -11.2592 C   0  0  0  0  0  0  0  0  0  0  0  0
   22.7812   -0.0495  -12.0052 O   0  0  0  0  0  0  0  0  0  0  0  0
   21.5603   -0.3304  -11.4116 C   0  0  0  0  0  0  0  0  0  0  0  0
   21.0025   -1.5972  -11.4241 C   0  0  0  0  0  0  0  0  0  0  0  0
   19.7947   -1.8838  -10.8391 C   0  0  0  0  0  0  0  0  0  0  0  0
   19.2798   -3.1356  -10.8712 F   0  0  0  0  0  0  0  0  0  0  0  0
   19.1191   -0.8563  -10.2158 C   0  0  0  0  0  0  0  0  0  0  0  0
   19.6234    0.4426  -10.1661 C   0  0  0  0  0  0  0  0  0  0  0  0
   18.8928    1.4963   -9.5064 C   0  0  0  0  0  0  0  0  0  0  0  0
   18.2952    2.3400   -8.9578 N   0  0  0  0  0  0  0  0  0  0  0  0
   20.8371    0.6552  -10.7728 C   0  0  0  0  0  0  0  0  0  0  0  0
   25.1378    0.4586  -11.7974 C   0  0  0  0  0  0  0  0  0  0  0  0
   26.3050    0.4197  -11.0432 C   0  0  0  0  0  0  0  0  0  0  0  0
   27.3827    1.0600  -11.8628 C   0  0  2  0  0  0  0  0  0  0  0  0
   27.4501    2.4261  -11.6654 O   0  0  0  0  0  0  0  0  0  0  0  0
   26.8879    0.8514  -13.2963 C   0  0  1  0  0  0  0  0  0  0  0  0
   27.0639   -0.4669  -13.6174 F   0  0  0  0  0  0  0  0  0  0  0  0
   25.3963    1.1097  -13.1092 C   0  0  0  0  0  0  0  0  0  0  0  0
  1  2  1  6
  2  3  2  0
  2  4  2  0
  2  5  1  6
  5  6  2  0
  6  7  1  0
  7  8  2  0
  8  9  1  0
  9 10  1  0
 10 11  2  0
 11 12  1  0
 12 13  1  0
 12 14  2  0
 14 15  1  0
 15 16  1  0
 16 17  3  0
 15 18  2  0
  8 19  1  0
 19 20  2  0
 20 21  1  0
 21 22  1  1
 21 23  1  0
 23 24  1  1
 23 25  1  0
 20  5  1  0
 18 10  1  0
 25 19  1  1
M  END
$$$$
