_rank19
     RDKit          3D

 25 27  0  0  0  0  0  0  0  0999 V2000
   28.9316   -0.8381   -9.7198 C   0  0  0  0  0  0  0  0  0  0  0  0
   27.5619   -0.1816   -8.8296 S   0  0  2  0  0  6  0  0  0  0  0  0
   27.9066    1.2109   -8.3900 O   0  0  0  0  0  0  0  0  0  0  0  0
   27.2784   -0.9747   -7.5754 O   0  0  0  0  0  0  0  0  0  0  0  0
   26.0928   -0.1579   -9.7748 C   0  0  0  0  0  0  0  0  0  0  0  0
   24.9243   -0.6524   -9.2356 C   0  0  0  0  0  0  0  0  0  0  0  0
   23.7321   -0.6559   -9.9457 C   0  0  0  0  0  0  0  0  0  0  0  0
   23.7695   -0.1385  -11.2245 C   0  0  0  0  0  0  0  0  0  0  0  0
   22.5659   -0.1352  -11.9584 O   0  0  0  0  0  0  0  0  0  0  0  0
   21.3380   -0.2170  -11.3202 C   0  0  0  0  0  0  0  0  0  0  0  0
   20.7853    0.8504  -10.6337 C   0  0  0  0  0  0  0  0  0  0  0  0
   19.5706    0.7779   -9.9994 C   0  0  0  0  0  0  0  0  0  0  0  0
   19.0610    1.8432   -9.3371 F   0  0  0  0  0  0  0  0  0  0  0  0
   18.8824   -0.4154  -10.0565 C   0  0  0  0  0  0  0  0  0  0  0  0
   19.3809   -1.5295  -10.7304 C   0  0  0  0  0  0  0  0  0  0  0  0
   18.6371   -2.7641  -10.7723 C   0  0  0  0  0  0  0  0  0  0  0  0
   18.0484   -3.7752  -10.8020 N   0  0  0  0  0  0  0  0  0  0  0  0
   20.6021   -1.3835  -11.3417 C   0  0  0  0  0  0  0  0  0  0  0  0
   24.9274    0.3669  -11.7973 C   0  0  0  0  0  0  0  0  0  0  0  0
   26.1024    0.3532  -11.0545 C   0  0  0  0  0  0  0  0  0  0  0  0
   27.1748    0.9513  -11.9121 C   0  0  2  0  0  0  0  0  0  0  0  0
   27.2521    2.3241  -11.7742 O   0  0  0  0  0  0  0  0  0  0  0  0
   26.6635    0.6845  -13.3300 C   0  0  1  0  0  0  0  0  0  0  0  0
   26.8286   -0.6475  -13.5961 F   0  0  0  0  0  0  0  0  0  0  0  0
   25.1755    0.9596  -13.1385 C   0  0  0  0  0  0  0  0  0  0  0  0
  1  2  1  6
  2  3  2  0
  2  4  2  0
  2  5  1  6
  5  6  2  0
  6  7  1  0
  7  8  2  0
  8  9  1  0
  9 10  1  0
 10 11  2  0
 11 12  1  0
 12 13  1  0
 12 14  2  0
 14 15  1  0
 15 16  1  0
 16 17  3  0
 15 18  2  0
  8 19  1  0
 19 20  2  0
 20 21  1  0
 21 22  1  1
 21 23  1  0
 23 24  1  1
 23 25  1  0
 20  5  1  0
 18 10  1  0
 25 19  1  1
M  END
$$$$
