_rank14
     RDKit          3D

 25 27  0  0  0  0  0  0  0  0999 V2000
   27.2575    0.6067   -7.1009 C   0  0  0  0  0  0  0  0  0  0  0  0
   27.5521   -0.2459   -8.6128 S   0  0  2  0  0  6  0  0  0  0  0  0
   28.0188   -1.6348   -8.2898 O   0  0  0  0  0  0  0  0  0  0  0  0
   28.6529    0.4056   -9.4166 O   0  0  0  0  0  0  0  0  0  0  0  0
   26.1352   -0.3192   -9.6322 C   0  0  0  0  0  0  0  0  0  0  0  0
   24.9861   -0.9205   -9.1645 C   0  0  0  0  0  0  0  0  0  0  0  0
   23.8353   -1.0039   -9.9355 C   0  0  0  0  0  0  0  0  0  0  0  0
   23.8937   -0.4540  -11.1998 C   0  0  0  0  0  0  0  0  0  0  0  0
   22.7322   -0.5311  -11.9949 O   0  0  0  0  0  0  0  0  0  0  0  0
   21.4855   -0.7331  -11.4235 C   0  0  0  0  0  0  0  0  0  0  0  0
   20.7833   -1.9167  -11.5721 C   0  0  0  0  0  0  0  0  0  0  0  0
   19.5489   -2.1248  -11.0100 C   0  0  0  0  0  0  0  0  0  0  0  0
   18.8912   -3.2964  -11.1769 F   0  0  0  0  0  0  0  0  0  0  0  0
   18.9966   -1.1025  -10.2679 C   0  0  0  0  0  0  0  0  0  0  0  0
   19.6492    0.1148  -10.0782 C   0  0  0  0  0  0  0  0  0  0  0  0
   19.0453    1.1652   -9.2964 C   0  0  0  0  0  0  0  0  0  0  0  0
   18.5713    2.0254   -8.6598 N   0  0  0  0  0  0  0  0  0  0  0  0
   20.8809    0.2517  -10.6702 C   0  0  0  0  0  0  0  0  0  0  0  0
   25.0330    0.1580  -11.7014 C   0  0  0  0  0  0  0  0  0  0  0  0
   26.1665    0.2221  -10.8991 C   0  0  0  0  0  0  0  0  0  0  0  0
   27.2273    0.9265  -11.6876 C   0  0  2  0  0  0  0  0  0  0  0  0
   27.1836    2.2973  -11.5182 O   0  0  0  0  0  0  0  0  0  0  0  0
   26.8114    0.6536  -13.1352 C   0  0  1  0  0  0  0  0  0  0  0  0
   27.0993   -0.6536  -13.4193 F   0  0  0  0  0  0  0  0  0  0  0  0
   25.2980    0.8016  -13.0157 C   0  0  0  0  0  0  0  0  0  0  0  0
  1  2  1  6
  2  3  2  0
  2  4  2  0
  2  5  1  6
  5  6  2  0
  6  7  1  0
  7  8  2  0
  8  9  1  0
  9 10  1  0
 10 11  2  0
 11 12  1  0
 12 13  1  0
 12 14  2  0
 14 15  1  0
 15 16  1  0
 16 17  3  0
 15 18  2  0
  8 19  1  0
 19 20  2  0
 20 21  1  0
 21 22  1  1
 21 23  1  0
 23 24  1  1
 23 25  1  0
 20  5  1  0
 18 10  1  0
 25 19  1  1
M  END
$$$$
