_rank12
     RDKit          3D

 25 27  0  0  0  0  0  0  0  0999 V2000
   28.7852   -1.5467   -8.9124 C   0  0  0  0  0  0  0  0  0  0  0  0
   27.6519   -0.2532   -8.5355 S   0  0  2  0  0  6  0  0  0  0  0  0
   28.3581    1.0596   -8.7060 O   0  0  0  0  0  0  0  0  0  0  0  0
   27.1917   -0.3145   -7.0978 O   0  0  0  0  0  0  0  0  0  0  0  0
   26.2246   -0.2932   -9.5421 C   0  0  0  0  0  0  0  0  0  0  0  0
   25.0773   -0.9012   -9.0787 C   0  0  0  0  0  0  0  0  0  0  0  0
   23.9184   -0.9591   -9.8398 C   0  0  0  0  0  0  0  0  0  0  0  0
   23.9669   -0.3766  -11.0899 C   0  0  0  0  0  0  0  0  0  0  0  0
   22.7971   -0.4275  -11.8750 O   0  0  0  0  0  0  0  0  0  0  0  0
   21.5519   -0.6089  -11.2934 C   0  0  0  0  0  0  0  0  0  0  0  0
   20.8814   -1.8191  -11.3363 C   0  0  0  0  0  0  0  0  0  0  0  0
   19.6488   -2.0072  -10.7634 C   0  0  0  0  0  0  0  0  0  0  0  0
   19.0225   -3.2060  -10.8253 F   0  0  0  0  0  0  0  0  0  0  0  0
   19.0651   -0.9361  -10.1208 C   0  0  0  0  0  0  0  0  0  0  0  0
   19.6849    0.3102  -10.0404 C   0  0  0  0  0  0  0  0  0  0  0  0
   19.0486    1.4116   -9.3611 C   0  0  0  0  0  0  0  0  0  0  0  0
   18.5161    2.2994   -8.8152 N   0  0  0  0  0  0  0  0  0  0  0  0
   20.9169    0.4245  -10.6366 C   0  0  0  0  0  0  0  0  0  0  0  0
   25.1041    0.2430  -11.5869 C   0  0  0  0  0  0  0  0  0  0  0  0
   26.2458    0.2809  -10.7947 C   0  0  0  0  0  0  0  0  0  0  0  0
   27.3021    1.0007  -11.5752 C   0  0  2  0  0  0  0  0  0  0  0  0
   27.2669    2.3668  -11.3697 O   0  0  0  0  0  0  0  0  0  0  0  0
   26.8705    0.7677  -13.0252 C   0  0  1  0  0  0  0  0  0  0  0  0
   27.1491   -0.5329  -13.3462 F   0  0  0  0  0  0  0  0  0  0  0  0
   25.3591    0.9195  -12.8865 C   0  0  0  0  0  0  0  0  0  0  0  0
  1  2  1  6
  2  3  2  0
  2  4  2  0
  2  5  1  6
  5  6  2  0
  6  7  1  0
  7  8  2  0
  8  9  1  0
  9 10  1  0
 10 11  2  0
 11 12  1  0
 12 13  1  0
 12 14  2  0
 14 15  1  0
 15 16  1  0
 16 17  3  0
 15 18  2  0
  8 19  1  0
 19 20  2  0
 20 21  1  0
 21 22  1  1
 21 23  1  0
 23 24  1  1
 23 25  1  0
 20  5  1  0
 18 10  1  0
 25 19  1  1
M  END
$$$$
