_rank2
     RDKit          3D

 25 27  0  0  0  0  0  0  0  0999 V2000
   28.4032    1.2722   -8.5561 C   0  0  0  0  0  0  0  0  0  0  0  0
   27.6841   -0.3126   -8.8226 S   0  0  2  0  0  6  0  0  0  0  0  0
   27.4045   -0.9362   -7.4869 O   0  0  0  0  0  0  0  0  0  0  0  0
   28.6311   -1.2417   -9.5453 O   0  0  0  0  0  0  0  0  0  0  0  0
   26.2121   -0.2356   -9.7602 C   0  0  0  0  0  0  0  0  0  0  0  0
   25.0133   -0.5968   -9.1828 C   0  0  0  0  0  0  0  0  0  0  0  0
   23.8174   -0.5530   -9.8854 C   0  0  0  0  0  0  0  0  0  0  0  0
   23.8830   -0.1287  -11.1968 C   0  0  0  0  0  0  0  0  0  0  0  0
   22.6760   -0.0789  -11.9236 O   0  0  0  0  0  0  0  0  0  0  0  0
   21.4663   -0.3948  -11.3249 C   0  0  0  0  0  0  0  0  0  0  0  0
   20.9517   -1.6798  -11.3233 C   0  0  0  0  0  0  0  0  0  0  0  0
   19.7552   -2.0011  -10.7332 C   0  0  0  0  0  0  0  0  0  0  0  0
   19.2829   -3.2698  -10.7514 F   0  0  0  0  0  0  0  0  0  0  0  0
   19.0461   -0.9906  -10.1192 C   0  0  0  0  0  0  0  0  0  0  0  0
   19.5061    0.3251  -10.0839 C   0  0  0  0  0  0  0  0  0  0  0  0
   18.7412    1.3602   -9.4338 C   0  0  0  0  0  0  0  0  0  0  0  0
   18.1276    2.2126   -8.9172 N   0  0  0  0  0  0  0  0  0  0  0  0
   20.7110    0.5724  -10.6950 C   0  0  0  0  0  0  0  0  0  0  0  0
   25.0716    0.2418  -11.8086 C   0  0  0  0  0  0  0  0  0  0  0  0
   26.2493    0.1846  -11.0721 C   0  0  0  0  0  0  0  0  0  0  0  0
   27.3572    0.6347  -11.9738 C   0  0  2  0  0  0  0  0  0  0  0  0
   27.5451    2.0031  -11.9312 O   0  0  0  0  0  0  0  0  0  0  0  0
   26.8118    0.3138  -13.3676 C   0  0  1  0  0  0  0  0  0  0  0  0
   26.8674   -1.0422  -13.5422 F   0  0  0  0  0  0  0  0  0  0  0  0
   25.3525    0.7199  -13.1885 C   0  0  0  0  0  0  0  0  0  0  0  0
  1  2  1  6
  2  3  2  0
  2  4  2  0
  2  5  1  6
  5  6  2  0
  6  7  1  0
  7  8  2  0
  8  9  1  0
  9 10  1  0
 10 11  2  0
 11 12  1  0
 12 13  1  0
 12 14  2  0
 14 15  1  0
 15 16  1  0
 16 17  3  0
 15 18  2  0
  8 19  1  0
 19 20  2  0
 20 21  1  0
 21 22  1  6
 21 23  1  0
 23 24  1  1
 23 25  1  0
 20  5  1  0
 18 10  1  0
 25 19  1  1
M  END
$$$$
