_rank10
     RDKit          3D

 25 27  0  0  0  0  0  0  0  0999 V2000
   28.1428    1.2166   -8.6375 C   0  0  0  0  0  0  0  0  0  0  0  0
   27.4555   -0.3988   -8.7706 S   0  0  2  0  0  6  0  0  0  0  0  0
   27.2111   -0.9247   -7.3868 O   0  0  0  0  0  0  0  0  0  0  0  0
   28.4117   -1.3598   -9.4372 O   0  0  0  0  0  0  0  0  0  0  0  0
   25.9676   -0.4247   -9.6856 C   0  0  0  0  0  0  0  0  0  0  0  0
   24.8518   -1.0408   -9.1600 C   0  0  0  0  0  0  0  0  0  0  0  0
   23.6472   -1.0881   -9.8473 C   0  0  0  0  0  0  0  0  0  0  0  0
   23.6167   -0.4867  -11.0889 C   0  0  0  0  0  0  0  0  0  0  0  0
   22.3996   -0.5266  -11.7992 O   0  0  0  0  0  0  0  0  0  0  0  0
   21.1831   -0.4325  -11.1412 C   0  0  0  0  0  0  0  0  0  0  0  0
   20.6569    0.7775  -10.7228 C   0  0  0  0  0  0  0  0  0  0  0  0
   19.4536    0.8795  -10.0709 C   0  0  0  0  0  0  0  0  0  0  0  0
   18.9700    2.0809   -9.6761 F   0  0  0  0  0  0  0  0  0  0  0  0
   18.7497   -0.2810   -9.8292 C   0  0  0  0  0  0  0  0  0  0  0  0
   19.2214   -1.5324  -10.2234 C   0  0  0  0  0  0  0  0  0  0  0  0
   18.4617   -2.7284   -9.9561 C   0  0  0  0  0  0  0  0  0  0  0  0
   17.8355   -3.6903   -9.7267 N   0  0  0  0  0  0  0  0  0  0  0  0
   20.4325   -1.5577  -10.8707 C   0  0  0  0  0  0  0  0  0  0  0  0
   24.7203    0.1416  -11.6472 C   0  0  0  0  0  0  0  0  0  0  0  0
   25.9097    0.1684  -10.9281 C   0  0  0  0  0  0  0  0  0  0  0  0
   26.9146    0.9011  -11.7627 C   0  0  2  0  0  0  0  0  0  0  0  0
   26.8925    2.2638  -11.5344 O   0  0  0  0  0  0  0  0  0  0  0  0
   26.3923    0.6898  -13.1859 C   0  0  1  0  0  0  0  0  0  0  0  0
   26.6501   -0.6055  -13.5437 F   0  0  0  0  0  0  0  0  0  0  0  0
   24.8927    0.8381  -12.9498 C   0  0  0  0  0  0  0  0  0  0  0  0
  1  2  1  6
  2  3  2  0
  2  4  2  0
  2  5  1  6
  5  6  2  0
  6  7  1  0
  7  8  2  0
  8  9  1  0
  9 10  1  0
 10 11  2  0
 11 12  1  0
 12 13  1  0
 12 14  2  0
 14 15  1  0
 15 16  1  0
 16 17  3  0
 15 18  2  0
  8 19  1  0
 19 20  2  0
 20 21  1  0
 21 22  1  1
 21 23  1  0
 23 24  1  1
 23 25  1  0
 20  5  1  0
 18 10  1  0
 25 19  1  1
M  END
$$$$
