_rank6
     RDKit          3D

 25 27  0  0  0  0  0  0  0  0999 V2000
   28.1325    1.0969   -8.3213 C   0  0  0  0  0  0  0  0  0  0  0  0
   27.5335   -0.5403   -8.5671 S   0  0  2  0  0  6  0  0  0  0  0  0
   27.2404   -1.1436   -7.2249 O   0  0  0  0  0  0  0  0  0  0  0  0
   28.5704   -1.4224   -9.2220 O   0  0  0  0  0  0  0  0  0  0  0  0
   26.1004   -0.5907   -9.5650 C   0  0  0  0  0  0  0  0  0  0  0  0
   24.9821   -1.2649   -9.1227 C   0  0  0  0  0  0  0  0  0  0  0  0
   23.8200   -1.3339   -9.8781 C   0  0  0  0  0  0  0  0  0  0  0  0
   23.8347   -0.6928  -11.0999 C   0  0  0  0  0  0  0  0  0  0  0  0
   22.6613   -0.7540  -11.8787 O   0  0  0  0  0  0  0  0  0  0  0  0
   21.4183   -0.9228  -11.2886 C   0  0  0  0  0  0  0  0  0  0  0  0
   20.7452   -2.1321  -11.3077 C   0  0  0  0  0  0  0  0  0  0  0  0
   19.5147   -2.3077  -10.7261 C   0  0  0  0  0  0  0  0  0  0  0  0
   18.8857   -3.5061  -10.7647 F   0  0  0  0  0  0  0  0  0  0  0  0
   18.9362   -1.2245  -10.0995 C   0  0  0  0  0  0  0  0  0  0  0  0
   19.5588    0.0217  -10.0432 C   0  0  0  0  0  0  0  0  0  0  0  0
   18.9279    1.1359   -9.3802 C   0  0  0  0  0  0  0  0  0  0  0  0
   18.4076    2.0289   -8.8308 N   0  0  0  0  0  0  0  0  0  0  0  0
   20.7884    0.1232  -10.6468 C   0  0  0  0  0  0  0  0  0  0  0  0
   24.9422   -0.0058  -11.5751 C   0  0  0  0  0  0  0  0  0  0  0  0
   26.0882    0.0411  -10.7895 C   0  0  0  0  0  0  0  0  0  0  0  0
   27.1084    0.8380  -11.5427 C   0  0  2  0  0  0  0  0  0  0  0  0
   27.0208    2.1905  -11.2735 O   0  0  0  0  0  0  0  0  0  0  0  0
   26.6741    0.6552  -12.9991 C   0  0  1  0  0  0  0  0  0  0  0  0
   27.0014   -0.6170  -13.3821 F   0  0  0  0  0  0  0  0  0  0  0  0
   25.1591    0.7398  -12.8434 C   0  0  0  0  0  0  0  0  0  0  0  0
  1  2  1  6
  2  3  2  0
  2  4  2  0
  2  5  1  6
  5  6  2  0
  6  7  1  0
  7  8  2  0
  8  9  1  0
  9 10  1  0
 10 11  2  0
 11 12  1  0
 12 13  1  0
 12 14  2  0
 14 15  1  0
 15 16  1  0
 16 17  3  0
 15 18  2  0
  8 19  1  0
 19 20  2  0
 20 21  1  0
 21 22  1  1
 21 23  1  0
 23 24  1  1
 23 25  1  0
 20  5  1  0
 18 10  1  0
 25 19  1  1
M  END
$$$$
