_rank13
     RDKit          3D

 19 20  0  0  0  0  0  0  0  0999 V2000
   27.3853   -0.1960  -12.1790 C   0  0  0  0  0  0  0  0  0  0  0  0
   25.7709    0.4665  -11.8483 S   0  0  1  0  0  6  0  0  0  0  0  0
   25.9249    1.9474  -11.6756 O   0  0  0  0  0  0  0  0  0  0  0  0
   24.8978    0.2448  -13.0535 O   0  0  0  0  0  0  0  0  0  0  0  0
   25.0596   -0.2196  -10.4274 C   0  0  0  0  0  0  0  0  0  0  0  0
   25.8689   -0.4821   -9.3447 C   0  0  0  0  0  0  0  0  0  0  0  0
   25.3943   -1.0278   -8.1689 C   0  0  0  0  0  0  0  0  0  0  0  0
   26.2793   -1.2763   -7.0845 N   0  0  0  0  0  0  0  0  0  0  0  0
   24.0386   -1.3311   -8.0594 C   0  0  0  0  0  0  0  0  0  0  0  0
   23.2353   -1.0663   -9.1450 C   0  0  0  0  0  0  0  0  0  0  0  0
   23.7171   -0.5178  -10.3244 C   0  0  0  0  0  0  0  0  0  0  0  0
   22.8683   -0.2617  -11.4103 O   0  0  0  0  0  0  0  0  0  0  0  0
   21.4962   -0.2589  -11.1735 C   0  0  0  0  0  0  0  0  0  0  0  0
   20.6507   -1.2294  -11.6941 C   0  0  0  0  0  0  0  0  0  0  0  0
   19.3279   -1.1992  -11.4469 N   0  0  0  0  0  0  0  0  0  0  0  0
   18.7307   -0.2594  -10.7004 C   0  0  0  0  0  0  0  0  0  0  0  0
   19.5501    0.7346  -10.1592 C   0  0  0  0  0  0  0  0  0  0  0  0
   18.9678    1.6976   -9.3993 F   0  0  0  0  0  0  0  0  0  0  0  0
   20.8953    0.7282  -10.3938 C   0  0  0  0  0  0  0  0  0  0  0  0
  1  2  1  6
  2  3  2  0
  2  4  2  0
  2  5  1  1
  5  6  2  0
  6  7  1  0
  7  8  1  0
  7  9  2  0
  9 10  1  0
 10 11  2  0
 11 12  1  0
 12 13  1  0
 13 14  2  0
 14 15  1  0
 15 16  2  0
 16 17  1  0
 17 18  1  0
 17 19  2  0
 11  5  1  0
 19 13  1  0
M  END
$$$$
