_rank14
     RDKit          3D

 19 20  0  0  0  0  0  0  0  0999 V2000
   27.2308   -1.5312  -10.2213 C   0  0  0  0  0  0  0  0  0  0  0  0
   27.1513   -0.1402   -9.1198 S   0  0  1  0  0  6  0  0  0  0  0  0
   26.6194   -0.6396   -7.8106 O   0  0  0  0  0  0  0  0  0  0  0  0
   28.5470    0.3648   -8.8724 O   0  0  0  0  0  0  0  0  0  0  0  0
   26.1303    1.1187   -9.7267 C   0  0  0  0  0  0  0  0  0  0  0  0
   26.4841    2.4280   -9.4891 C   0  0  0  0  0  0  0  0  0  0  0  0
   25.7348    3.4993   -9.9323 C   0  0  0  0  0  0  0  0  0  0  0  0
   26.1515    4.8300   -9.6558 N   0  0  0  0  0  0  0  0  0  0  0  0
   24.5665    3.2592  -10.6531 C   0  0  0  0  0  0  0  0  0  0  0  0
   24.2186    1.9484  -10.8871 C   0  0  0  0  0  0  0  0  0  0  0  0
   24.9751    0.8754  -10.4395 C   0  0  0  0  0  0  0  0  0  0  0  0
   24.5891   -0.4474  -10.6971 O   0  0  0  0  0  0  0  0  0  0  0  0
   23.2800   -0.8112  -10.3928 C   0  0  0  0  0  0  0  0  0  0  0  0
   22.6118   -0.3185   -9.2799 C   0  0  0  0  0  0  0  0  0  0  0  0
   21.3457   -0.6896   -9.0128 N   0  0  0  0  0  0  0  0  0  0  0  0
   20.6423   -1.5400   -9.7737 C   0  0  0  0  0  0  0  0  0  0  0  0
   21.2822   -2.0569  -10.9032 C   0  0  0  0  0  0  0  0  0  0  0  0
   20.5897   -2.9205  -11.6895 F   0  0  0  0  0  0  0  0  0  0  0  0
   22.5662   -1.6975  -11.1980 C   0  0  0  0  0  0  0  0  0  0  0  0
  1  2  1  6
  2  3  2  0
  2  4  2  0
  2  5  1  6
  5  6  2  0
  6  7  1  0
  7  8  1  0
  7  9  2  0
  9 10  1  0
 10 11  2  0
 11 12  1  0
 12 13  1  0
 13 14  2  0
 14 15  1  0
 15 16  2  0
 16 17  1  0
 17 18  1  0
 17 19  2  0
 11  5  1  0
 19 13  1  0
M  END
$$$$
