_rank11
     RDKit          3D

 19 20  0  0  0  0  0  0  0  0999 V2000
   25.3179   -0.6044  -13.1874 C   0  0  0  0  0  0  0  0  0  0  0  0
   26.3091    0.5149  -12.2287 S   0  0  1  0  0  6  0  0  0  0  0  0
   27.7260    0.3639  -12.6937 O   0  0  0  0  0  0  0  0  0  0  0  0
   25.8851    1.9255  -12.5360 O   0  0  0  0  0  0  0  0  0  0  0  0
   26.2101    0.1888  -10.5318 C   0  0  0  0  0  0  0  0  0  0  0  0
   27.3251   -0.2976   -9.8867 C   0  0  0  0  0  0  0  0  0  0  0  0
   27.3436   -0.5875   -8.5371 C   0  0  0  0  0  0  0  0  0  0  0  0
   28.5259   -1.0878   -7.9267 N   0  0  0  0  0  0  0  0  0  0  0  0
   26.1899   -0.3833   -7.7826 C   0  0  0  0  0  0  0  0  0  0  0  0
   25.0790    0.1031   -8.4334 C   0  0  0  0  0  0  0  0  0  0  0  0
   25.0656    0.3927   -9.7898 C   0  0  0  0  0  0  0  0  0  0  0  0
   23.9146    0.8872  -10.4190 O   0  0  0  0  0  0  0  0  0  0  0  0
   22.8155    0.0383  -10.5189 C   0  0  0  0  0  0  0  0  0  0  0  0
   22.9307   -1.3414  -10.4144 C   0  0  0  0  0  0  0  0  0  0  0  0
   21.8486   -2.1356  -10.5154 N   0  0  0  0  0  0  0  0  0  0  0  0
   20.6051   -1.6781  -10.7191 C   0  0  0  0  0  0  0  0  0  0  0  0
   20.4497   -0.2939  -10.8294 C   0  0  0  0  0  0  0  0  0  0  0  0
   19.1992    0.1933  -11.0359 F   0  0  0  0  0  0  0  0  0  0  0  0
   21.5303    0.5351  -10.7309 C   0  0  0  0  0  0  0  0  0  0  0  0
  1  2  1  6
  2  3  2  0
  2  4  2  0
  2  5  1  1
  5  6  2  0
  6  7  1  0
  7  8  1  0
  7  9  2  0
  9 10  1  0
 10 11  2  0
 11 12  1  0
 12 13  1  0
 13 14  2  0
 14 15  1  0
 15 16  2  0
 16 17  1  0
 17 18  1  0
 17 19  2  0
 11  5  1  0
 19 13  1  0
M  END
$$$$
