_rank5
     RDKit          3D

 19 20  0  0  0  0  0  0  0  0999 V2000
   26.3186   -0.8708  -13.2547 C   0  0  0  0  0  0  0  0  0  0  0  0
   26.1095    0.5894  -12.2655 S   0  0  1  0  0  6  0  0  0  0  0  0
   27.4351    1.2872  -12.2170 O   0  0  0  0  0  0  0  0  0  0  0  0
   25.1432    1.5119  -12.9580 O   0  0  0  0  0  0  0  0  0  0  0  0
   25.5800    0.2224  -10.6591 C   0  0  0  0  0  0  0  0  0  0  0  0
   26.4935    0.2905   -9.6310 C   0  0  0  0  0  0  0  0  0  0  0  0
   26.1665    0.0162   -8.3182 C   0  0  0  0  0  0  0  0  0  0  0  0
   27.1539    0.1037   -7.2993 N   0  0  0  0  0  0  0  0  0  0  0  0
   24.8578   -0.3468   -8.0058 C   0  0  0  0  0  0  0  0  0  0  0  0
   23.9498   -0.4130   -9.0379 C   0  0  0  0  0  0  0  0  0  0  0  0
   24.2835   -0.1364  -10.3555 C   0  0  0  0  0  0  0  0  0  0  0  0
   23.3311   -0.2143  -11.3812 O   0  0  0  0  0  0  0  0  0  0  0  0
   22.0012   -0.4081  -11.0172 C   0  0  0  0  0  0  0  0  0  0  0  0
   21.3756   -1.6434  -11.1193 C   0  0  0  0  0  0  0  0  0  0  0  0
   20.0880   -1.7986  -10.7591 N   0  0  0  0  0  0  0  0  0  0  0  0
   19.3220   -0.8056  -10.2854 C   0  0  0  0  0  0  0  0  0  0  0  0
   19.9176    0.4529  -10.1684 C   0  0  0  0  0  0  0  0  0  0  0  0
   19.1614    1.4747   -9.6909 F   0  0  0  0  0  0  0  0  0  0  0  0
   21.2221    0.6387  -10.5266 C   0  0  0  0  0  0  0  0  0  0  0  0
  1  2  1  6
  2  3  2  0
  2  4  2  0
  2  5  1  1
  5  6  2  0
  6  7  1  0
  7  8  1  0
  7  9  2  0
  9 10  1  0
 10 11  2  0
 11 12  1  0
 12 13  1  0
 13 14  2  0
 14 15  1  0
 15 16  2  0
 16 17  1  0
 17 18  1  0
 17 19  2  0
 11  5  1  0
 19 13  1  0
M  END
$$$$
