_rank19
     RDKit          3D

 19 20  0  0  0  0  0  0  0  0999 V2000
   25.8659   -0.6203  -11.4407 C   0  0  0  0  0  0  0  0  0  0  0  0
   25.6232    0.3944  -10.0033 S   0  0  1  0  0  6  0  0  0  0  0  0
   26.9662    0.5944   -9.3684 O   0  0  0  0  0  0  0  0  0  0  0  0
   25.1290    1.7468  -10.4403 O   0  0  0  0  0  0  0  0  0  0  0  0
   24.5379   -0.3294   -8.8659 C   0  0  0  0  0  0  0  0  0  0  0  0
   24.9049   -0.3745   -7.5396 C   0  0  0  0  0  0  0  0  0  0  0  0
   24.1075   -0.9306   -6.5596 C   0  0  0  0  0  0  0  0  0  0  0  0
   24.5409   -0.9479   -5.2058 N   0  0  0  0  0  0  0  0  0  0  0  0
   22.8742   -1.4738   -6.9145 C   0  0  0  0  0  0  0  0  0  0  0  0
   22.5134   -1.4255   -8.2418 C   0  0  0  0  0  0  0  0  0  0  0  0
   23.3184   -0.8655   -9.2227 C   0  0  0  0  0  0  0  0  0  0  0  0
   22.9174   -0.8342  -10.5657 O   0  0  0  0  0  0  0  0  0  0  0  0
   21.5716   -0.5993  -10.8346 C   0  0  0  0  0  0  0  0  0  0  0  0
   20.7878   -1.4996  -11.5438 C   0  0  0  0  0  0  0  0  0  0  0  0
   19.4890   -1.2435  -11.7877 N   0  0  0  0  0  0  0  0  0  0  0  0
   18.8593   -0.1324  -11.3802 C   0  0  0  0  0  0  0  0  0  0  0  0
   19.6164    0.7976  -10.6630 C   0  0  0  0  0  0  0  0  0  0  0  0
   19.0003    1.9311  -10.2395 F   0  0  0  0  0  0  0  0  0  0  0  0
   20.9360    0.5633  -10.4013 C   0  0  0  0  0  0  0  0  0  0  0  0
  1  2  1  6
  2  3  2  0
  2  4  2  0
  2  5  1  1
  5  6  2  0
  6  7  1  0
  7  8  1  0
  7  9  2  0
  9 10  1  0
 10 11  2  0
 11 12  1  0
 12 13  1  0
 13 14  2  0
 14 15  1  0
 15 16  2  0
 16 17  1  0
 17 18  1  0
 17 19  2  0
 11  5  1  0
 19 13  1  0
M  END
$$$$
