_rank9
     RDKit          3D

 19 20  0  0  0  0  0  0  0  0999 V2000
   26.2921   -0.9701  -13.4131 C   0  0  0  0  0  0  0  0  0  0  0  0
   26.6559    0.4409  -12.3976 S   0  0  1  0  0  6  0  0  0  0  0  0
   28.1275    0.7019  -12.5098 O   0  0  0  0  0  0  0  0  0  0  0  0
   25.9443    1.6415  -12.9601 O   0  0  0  0  0  0  0  0  0  0  0  0
   26.2300    0.1827  -10.7401 C   0  0  0  0  0  0  0  0  0  0  0  0
   27.2363   -0.0361   -9.8261 C   0  0  0  0  0  0  0  0  0  0  0  0
   26.9962   -0.2516   -8.4839 C   0  0  0  0  0  0  0  0  0  0  0  0
   28.0775   -0.4719   -7.5877 N   0  0  0  0  0  0  0  0  0  0  0  0
   25.6821   -0.2503   -8.0202 C   0  0  0  0  0  0  0  0  0  0  0  0
   24.6810   -0.0311   -8.9388 C   0  0  0  0  0  0  0  0  0  0  0  0
   24.9276    0.1850  -10.2865 C   0  0  0  0  0  0  0  0  0  0  0  0
   23.8816    0.4050  -11.1936 O   0  0  0  0  0  0  0  0  0  0  0  0
   22.6078   -0.0237  -10.8300 C   0  0  0  0  0  0  0  0  0  0  0  0
   21.6180    0.8571  -10.4148 C   0  0  0  0  0  0  0  0  0  0  0  0
   20.3957    0.4113  -10.0696 N   0  0  0  0  0  0  0  0  0  0  0  0
   20.0390   -0.8806  -10.0959 C   0  0  0  0  0  0  0  0  0  0  0  0
   21.0094   -1.7973  -10.5087 C   0  0  0  0  0  0  0  0  0  0  0  0
   20.6715   -3.1119  -10.5435 F   0  0  0  0  0  0  0  0  0  0  0  0
   22.2575   -1.3726  -10.8645 C   0  0  0  0  0  0  0  0  0  0  0  0
  1  2  1  6
  2  3  2  0
  2  4  2  0
  2  5  1  1
  5  6  2  0
  6  7  1  0
  7  8  1  0
  7  9  2  0
  9 10  1  0
 10 11  2  0
 11 12  1  0
 12 13  1  0
 13 14  2  0
 14 15  1  0
 15 16  2  0
 16 17  1  0
 17 18  1  0
 17 19  2  0
 11  5  1  0
 19 13  1  0
M  END
$$$$
