_rank20
     RDKit          3D

 19 20  0  0  0  0  0  0  0  0999 V2000
   26.4613   -1.4441   -9.1132 C   0  0  0  0  0  0  0  0  0  0  0  0
   25.2162   -0.3418   -9.7368 S   0  0  1  0  0  6  0  0  0  0  0  0
   24.4672    0.1968   -8.5555 O   0  0  0  0  0  0  0  0  0  0  0  0
   25.8904    0.8237  -10.4085 O   0  0  0  0  0  0  0  0  0  0  0  0
   24.1195   -1.1351  -10.8155 C   0  0  0  0  0  0  0  0  0  0  0  0
   24.4930   -2.3391  -11.3692 C   0  0  0  0  0  0  0  0  0  0  0  0
   23.6875   -3.0462  -12.2392 C   0  0  0  0  0  0  0  0  0  0  0  0
   24.1282   -4.2853  -12.7790 N   0  0  0  0  0  0  0  0  0  0  0  0
   22.4388   -2.5301  -12.5804 C   0  0  0  0  0  0  0  0  0  0  0  0
   22.0716   -1.3262  -12.0235 C   0  0  0  0  0  0  0  0  0  0  0  0
   22.8848   -0.6196  -11.1498 C   0  0  0  0  0  0  0  0  0  0  0  0
   22.4769    0.6045  -10.6018 O   0  0  0  0  0  0  0  0  0  0  0  0
   21.1611    0.7098  -10.1590 C   0  0  0  0  0  0  0  0  0  0  0  0
   20.4754    1.9170  -10.1480 C   0  0  0  0  0  0  0  0  0  0  0  0
   19.2032    1.9861   -9.7136 N   0  0  0  0  0  0  0  0  0  0  0  0
   18.5096    0.9290   -9.2680 C   0  0  0  0  0  0  0  0  0  0  0  0
   19.1672   -0.3038   -9.2642 C   0  0  0  0  0  0  0  0  0  0  0  0
   18.4850   -1.3894   -8.8171 F   0  0  0  0  0  0  0  0  0  0  0  0
   20.4578   -0.4027   -9.6994 C   0  0  0  0  0  0  0  0  0  0  0  0
  1  2  1  6
  2  3  2  0
  2  4  2  0
  2  5  1  6
  5  6  2  0
  6  7  1  0
  7  8  1  0
  7  9  2  0
  9 10  1  0
 10 11  2  0
 11 12  1  0
 12 13  1  0
 13 14  2  0
 14 15  1  0
 15 16  2  0
 16 17  1  0
 17 18  1  0
 17 19  2  0
 11  5  1  0
 19 13  1  0
M  END
$$$$
