_rank15
     RDKit          3D

 19 20  0  0  0  0  0  0  0  0999 V2000
   20.2737    2.3890  -10.2755 C   0  0  0  0  0  0  0  0  0  0  0  0
   20.2018    0.9451   -9.2438 S   0  0  1  0  0  6  0  0  0  0  0  0
   21.0082    1.2366   -8.0144 O   0  0  0  0  0  0  0  0  0  0  0  0
   18.7785    0.7310   -8.8051 O   0  0  0  0  0  0  0  0  0  0  0  0
   20.8284   -0.4594  -10.0377 C   0  0  0  0  0  0  0  0  0  0  0  0
   19.9512   -1.4521  -10.4132 C   0  0  0  0  0  0  0  0  0  0  0  0
   20.3554   -2.6078  -11.0510 C   0  0  0  0  0  0  0  0  0  0  0  0
   19.4022   -3.5978  -11.4144 N   0  0  0  0  0  0  0  0  0  0  0  0
   21.7078   -2.7905  -11.3331 C   0  0  0  0  0  0  0  0  0  0  0  0
   22.5792   -1.7945  -10.9551 C   0  0  0  0  0  0  0  0  0  0  0  0
   22.1680   -0.6351  -10.3145 C   0  0  0  0  0  0  0  0  0  0  0  0
   23.0850    0.3585   -9.9442 O   0  0  0  0  0  0  0  0  0  0  0  0
   24.3986   -0.0317   -9.6977 C   0  0  0  0  0  0  0  0  0  0  0  0
   24.8873   -0.2253   -8.4126 C   0  0  0  0  0  0  0  0  0  0  0  0
   26.1629   -0.6029   -8.2072 N   0  0  0  0  0  0  0  0  0  0  0  0
   27.0444   -0.8179   -9.1939 C   0  0  0  0  0  0  0  0  0  0  0  0
   26.5885   -0.6329  -10.5017 C   0  0  0  0  0  0  0  0  0  0  0  0
   27.4634   -0.8449  -11.5183 F   0  0  0  0  0  0  0  0  0  0  0  0
   25.2994   -0.2502  -10.7390 C   0  0  0  0  0  0  0  0  0  0  0  0
  1  2  1  6
  2  3  2  0
  2  4  2  0
  2  5  1  6
  5  6  2  0
  6  7  1  0
  7  8  1  0
  7  9  2  0
  9 10  1  0
 10 11  2  0
 11 12  1  0
 12 13  1  0
 13 14  2  0
 14 15  1  0
 15 16  2  0
 16 17  1  0
 17 18  1  0
 17 19  2  0
 11  5  1  0
 19 13  1  0
M  END
$$$$
