_rank8
     RDKit          3D

 19 20  0  0  0  0  0  0  0  0999 V2000
   27.0934   -2.1829   -8.8445 C   0  0  0  0  0  0  0  0  0  0  0  0
   26.9417   -0.4248   -9.0467 S   0  0  1  0  0  6  0  0  0  0  0  0
   26.0181    0.0680   -7.9740 O   0  0  0  0  0  0  0  0  0  0  0  0
   28.2847    0.2100   -8.8073 O   0  0  0  0  0  0  0  0  0  0  0  0
   26.3167    0.0043  -10.6025 C   0  0  0  0  0  0  0  0  0  0  0  0
   27.1725    0.5584  -11.5280 C   0  0  0  0  0  0  0  0  0  0  0  0
   26.7677    0.9326  -12.7936 C   0  0  0  0  0  0  0  0  0  0  0  0
   27.6983    1.5001  -13.7062 N   0  0  0  0  0  0  0  0  0  0  0  0
   25.4371    0.7469  -13.1638 C   0  0  0  0  0  0  0  0  0  0  0  0
   24.5870    0.1927  -12.2342 C   0  0  0  0  0  0  0  0  0  0  0  0
   24.9988   -0.1817  -10.9637 C   0  0  0  0  0  0  0  0  0  0  0  0
   24.1038   -0.7437  -10.0426 O   0  0  0  0  0  0  0  0  0  0  0  0
   22.7551   -0.4224  -10.1710 C   0  0  0  0  0  0  0  0  0  0  0  0
   22.3024    0.8901  -10.1851 C   0  0  0  0  0  0  0  0  0  0  0  0
   20.9913    1.1683  -10.3107 N   0  0  0  0  0  0  0  0  0  0  0  0
   20.0391    0.2322  -10.4294 C   0  0  0  0  0  0  0  0  0  0  0  0
   20.4571   -1.1011  -10.4194 C   0  0  0  0  0  0  0  0  0  0  0  0
   19.5104   -2.0673  -10.5383 F   0  0  0  0  0  0  0  0  0  0  0  0
   21.7808   -1.4119  -10.2932 C   0  0  0  0  0  0  0  0  0  0  0  0
  1  2  1  6
  2  3  2  0
  2  4  2  0
  2  5  1  6
  5  6  2  0
  6  7  1  0
  7  8  1  0
  7  9  2  0
  9 10  1  0
 10 11  2  0
 11 12  1  0
 12 13  1  0
 13 14  2  0
 14 15  1  0
 15 16  2  0
 16 17  1  0
 17 18  1  0
 17 19  2  0
 11  5  1  0
 19 13  1  0
M  END
$$$$
