_rank2
     RDKit          3D

 19 20  0  0  0  0  0  0  0  0999 V2000
   26.0285    1.8030  -12.9463 C   0  0  0  0  0  0  0  0  0  0  0  0
   26.4009    0.2339  -12.2021 S   0  0  1  0  0  6  0  0  0  0  0  0
   25.6652   -0.8137  -12.9817 O   0  0  0  0  0  0  0  0  0  0  0  0
   27.8717   -0.0420  -12.3587 O   0  0  0  0  0  0  0  0  0  0  0  0
   25.9272    0.1688  -10.5386 C   0  0  0  0  0  0  0  0  0  0  0  0
   26.9086    0.1319   -9.5735 C   0  0  0  0  0  0  0  0  0  0  0  0
   26.6299    0.0791   -8.2226 C   0  0  0  0  0  0  0  0  0  0  0  0
   27.6868    0.0429   -7.2726 N   0  0  0  0  0  0  0  0  0  0  0  0
   25.3010    0.0620   -7.8033 C   0  0  0  0  0  0  0  0  0  0  0  0
   24.3250    0.0991   -8.7729 C   0  0  0  0  0  0  0  0  0  0  0  0
   24.6103    0.1520  -10.1293 C   0  0  0  0  0  0  0  0  0  0  0  0
   23.5891    0.1887  -11.0889 O   0  0  0  0  0  0  0  0  0  0  0  0
   22.3347   -0.2888  -10.7186 C   0  0  0  0  0  0  0  0  0  0  0  0
   22.0747   -1.6425  -10.5524 C   0  0  0  0  0  0  0  0  0  0  0  0
   20.8507   -2.0729  -10.1937 N   0  0  0  0  0  0  0  0  0  0  0  0
   19.8096   -1.2580   -9.9726 C   0  0  0  0  0  0  0  0  0  0  0  0
   20.0333    0.1122  -10.1303 C   0  0  0  0  0  0  0  0  0  0  0  0
   18.9935    0.9577   -9.9118 F   0  0  0  0  0  0  0  0  0  0  0  0
   21.2651    0.5764  -10.4935 C   0  0  0  0  0  0  0  0  0  0  0  0
  1  2  1  6
  2  3  2  0
  2  4  2  0
  2  5  1  1
  5  6  2  0
  6  7  1  0
  7  8  1  0
  7  9  2  0
  9 10  1  0
 10 11  2  0
 11 12  1  0
 12 13  1  0
 13 14  2  0
 14 15  1  0
 15 16  2  0
 16 17  1  0
 17 18  1  0
 17 19  2  0
 11  5  1  0
 19 13  1  0
M  END
$$$$
