_rank16
     RDKit          3D

 19 20  0  0  0  0  0  0  0  0999 V2000
   27.8081    1.9866   -8.9698 C   0  0  0  0  0  0  0  0  0  0  0  0
   26.5139    0.9127   -8.3985 S   0  0  1  0  0  6  0  0  0  0  0  0
   26.6369    0.8222   -6.9075 O   0  0  0  0  0  0  0  0  0  0  0  0
   25.1845    1.5499   -8.7000 O   0  0  0  0  0  0  0  0  0  0  0  0
   26.6201   -0.6688   -9.0935 C   0  0  0  0  0  0  0  0  0  0  0  0
   27.5951   -1.5269   -8.6364 C   0  0  0  0  0  0  0  0  0  0  0  0
   27.7584   -2.8063   -9.1282 C   0  0  0  0  0  0  0  0  0  0  0  0
   28.7843   -3.6466   -8.6159 N   0  0  0  0  0  0  0  0  0  0  0  0
   26.9058   -3.2623  -10.1317 C   0  0  0  0  0  0  0  0  0  0  0  0
   25.9334   -2.3998  -10.5842 C   0  0  0  0  0  0  0  0  0  0  0  0
   25.7735   -1.1149  -10.0866 C   0  0  0  0  0  0  0  0  0  0  0  0
   24.7710   -0.2639  -10.5723 O   0  0  0  0  0  0  0  0  0  0  0  0
   23.4502   -0.6912  -10.4648 C   0  0  0  0  0  0  0  0  0  0  0  0
   22.9409   -1.2433   -9.2971 C   0  0  0  0  0  0  0  0  0  0  0  0
   21.6589   -1.6471   -9.2246 N   0  0  0  0  0  0  0  0  0  0  0  0
   20.7900   -1.5545  -10.2413 C   0  0  0  0  0  0  0  0  0  0  0  0
   21.2668   -1.0037  -11.4336 C   0  0  0  0  0  0  0  0  0  0  0  0
   20.4050   -0.8995  -12.4777 F   0  0  0  0  0  0  0  0  0  0  0  0
   22.5629   -0.5857  -11.5348 C   0  0  0  0  0  0  0  0  0  0  0  0
  1  2  1  6
  2  3  2  0
  2  4  2  0
  2  5  1  6
  5  6  2  0
  6  7  1  0
  7  8  1  0
  7  9  2  0
  9 10  1  0
 10 11  2  0
 11 12  1  0
 12 13  1  0
 13 14  2  0
 14 15  1  0
 15 16  2  0
 16 17  1  0
 17 18  1  0
 17 19  2  0
 11  5  1  0
 19 13  1  0
M  END
$$$$
