_rank7
     RDKit          3D

 19 20  0  0  0  0  0  0  0  0999 V2000
   26.6354   -0.7938  -13.2636 C   0  0  0  0  0  0  0  0  0  0  0  0
   26.7362    0.6116  -12.1823 S   0  0  1  0  0  6  0  0  0  0  0  0
   28.1635    1.0691  -12.1797 O   0  0  0  0  0  0  0  0  0  0  0  0
   25.9092    1.7289  -12.7582 O   0  0  0  0  0  0  0  0  0  0  0  0
   26.2378    0.2337  -10.5685 C   0  0  0  0  0  0  0  0  0  0  0  0
   27.1987    0.1306   -9.5877 C   0  0  0  0  0  0  0  0  0  0  0  0
   26.8995   -0.1665   -8.2732 C   0  0  0  0  0  0  0  0  0  0  0  0
   27.9358   -0.2596   -7.3046 N   0  0  0  0  0  0  0  0  0  0  0  0
   25.5703   -0.3733   -7.9093 C   0  0  0  0  0  0  0  0  0  0  0  0
   24.6148   -0.2688   -8.8943 C   0  0  0  0  0  0  0  0  0  0  0  0
   24.9208    0.0299  -10.2137 C   0  0  0  0  0  0  0  0  0  0  0  0
   23.9201    0.1283  -11.1906 O   0  0  0  0  0  0  0  0  0  0  0  0
   22.6133   -0.1667  -10.8114 C   0  0  0  0  0  0  0  0  0  0  0  0
   21.6294    0.8083  -10.7166 C   0  0  0  0  0  0  0  0  0  0  0  0
   20.3745    0.4911  -10.3470 N   0  0  0  0  0  0  0  0  0  0  0  0
   19.9782   -0.7541  -10.0478 C   0  0  0  0  0  0  0  0  0  0  0  0
   20.9415   -1.7627  -10.1320 C   0  0  0  0  0  0  0  0  0  0  0  0
   20.5637   -3.0323   -9.8337 F   0  0  0  0  0  0  0  0  0  0  0  0
   22.2221   -1.4690  -10.5044 C   0  0  0  0  0  0  0  0  0  0  0  0
  1  2  1  6
  2  3  2  0
  2  4  2  0
  2  5  1  1
  5  6  2  0
  6  7  1  0
  7  8  1  0
  7  9  2  0
  9 10  1  0
 10 11  2  0
 11 12  1  0
 12 13  1  0
 13 14  2  0
 14 15  1  0
 15 16  2  0
 16 17  1  0
 17 18  1  0
 17 19  2  0
 11  5  1  0
 19 13  1  0
M  END
$$$$
