_rank8
     RDKit          3D

 29 31  0  0  0  0  0  0  0  0999 V2000
   18.4210   -4.2711  -11.0855 N   0  0  0  0  0  0  0  0  0  0  0  0
   18.8877   -3.1398  -10.9254 C   0  0  0  0  0  0  0  0  0  0  0  0
   19.4271   -1.8874  -10.7586 C   0  0  0  0  0  0  0  0  0  0  0  0
   18.6977   -0.9393  -10.0385 C   0  0  0  0  0  0  0  0  0  0  0  0
   19.1634    0.3203   -9.8415 C   0  0  0  0  0  0  0  0  0  0  0  0
   18.4261    1.2226   -9.1337 F   0  0  0  0  0  0  0  0  0  0  0  0
   20.3847    0.6845  -10.3594 C   0  0  0  0  0  0  0  0  0  0  0  0
   21.1423   -0.2180  -11.0778 C   0  0  0  0  0  0  0  0  0  0  0  0
   22.3648    0.1978  -11.5791 O   0  0  0  0  0  0  0  0  0  0  0  0
   23.5326   -0.1067  -10.8697 C   0  0  0  0  0  0  0  0  0  0  0  0
   23.4903   -0.7289   -9.6486 C   0  0  0  0  0  0  0  0  0  0  0  0
   24.6561   -1.0134   -8.9796 C   0  0  0  0  0  0  0  0  0  0  0  0
   25.9263   -0.6951   -9.4852 C   0  0  0  0  0  0  0  0  0  0  0  0
   27.3174   -1.1320   -8.5409 S   0  0  2  0  0  6  0  0  0  0  0  0
   28.1908   -2.0816   -9.3629 O   0  0  0  0  0  0  0  0  0  0  0  0
   26.8969   -1.9848   -7.3480 O   0  0  0  0  0  0  0  0  0  0  0  0
   28.2532    0.1992   -7.9101 C   0  0  1  0  0  0  0  0  0  0  0  0
   27.5599    1.0321   -7.0692 F   0  0  0  0  0  0  0  0  0  0  0  0
   29.4342   -0.2552   -7.3019 F   0  0  0  0  0  0  0  0  0  0  0  0
   28.7202    1.0281   -8.9423 F   0  0  0  0  0  0  0  0  0  0  0  0
   25.9637   -0.0756  -10.6982 C   0  0  0  0  0  0  0  0  0  0  0  0
   24.7697    0.2093  -11.3754 C   0  0  0  0  0  0  0  0  0  0  0  0
   25.0724    0.8488  -12.6949 C   0  0  0  0  0  0  0  0  0  0  0  0
   26.4952    0.3664  -12.9534 C   0  0  2  0  0  0  0  0  0  0  0  0
   27.1088    1.2737  -13.7797 F   0  0  0  0  0  0  0  0  0  0  0  0
   26.5365   -0.8855  -13.4943 F   0  0  0  0  0  0  0  0  0  0  0  0
   27.0751    0.4173  -11.5377 C   0  0  1  0  0  0  0  0  0  0  0  0
   27.3293    1.7912  -11.3474 O   0  0  0  0  0  0  0  0  0  0  0  0
   20.6680   -1.4877  -11.2736 C   0  0  0  0  0  0  0  0  0  0  0  0
  1  2  3  0
  2  3  1  0
  3  4  2  0
  4  5  1  0
  5  6  1  0
  5  7  2  0
  7  8  1  0
  8  9  1  0
  9 10  1  0
 10 11  2  0
 11 12  1  0
 12 13  2  0
 14 13  1  6
 14 15  2  0
 14 16  2  0
 14 17  1  0
 17 18  1  1
 17 19  1  0
 17 20  1  0
 13 21  1  0
 21 22  2  0
 23 22  1  1
 23 24  1  0
 24 25  1  6
 24 26  1  0
 24 27  1  0
 27 28  1  1
  8 29  2  0
 29  3  1  0
 22 10  1  0
 27 21  1  0
M  END
$$$$
