_rank7
     RDKit          3D

 29 31  0  0  0  0  0  0  0  0999 V2000
   17.4522   -3.9788  -11.2046 N   0  0  0  0  0  0  0  0  0  0  0  0
   18.1470   -2.9711  -11.0459 C   0  0  0  0  0  0  0  0  0  0  0  0
   18.9365   -1.8584  -10.8847 C   0  0  0  0  0  0  0  0  0  0  0  0
   18.4560   -0.8100  -10.0977 C   0  0  0  0  0  0  0  0  0  0  0  0
   19.1766    0.3234   -9.9015 C   0  0  0  0  0  0  0  0  0  0  0  0
   18.6784    1.3290   -9.1274 F   0  0  0  0  0  0  0  0  0  0  0  0
   20.4143    0.4544  -10.4874 C   0  0  0  0  0  0  0  0  0  0  0  0
   20.9317   -0.5551  -11.2735 C   0  0  0  0  0  0  0  0  0  0  0  0
   22.1819   -0.3744  -11.8417 O   0  0  0  0  0  0  0  0  0  0  0  0
   23.3175   -0.4311  -11.0251 C   0  0  0  0  0  0  0  0  0  0  0  0
   23.2622   -0.9349   -9.7510 C   0  0  0  0  0  0  0  0  0  0  0  0
   24.3964   -0.9761   -8.9767 C   0  0  0  0  0  0  0  0  0  0  0  0
   25.6460   -0.5189   -9.4240 C   0  0  0  0  0  0  0  0  0  0  0  0
   27.0010   -0.6502   -8.3449 S   0  0  2  0  0  6  0  0  0  0  0  0
   27.6069   -2.0479   -8.4847 O   0  0  0  0  0  0  0  0  0  0  0  0
   26.5248   -0.6167   -6.8960 O   0  0  0  0  0  0  0  0  0  0  0  0
   28.2219    0.5860   -8.5081 C   0  0  1  0  0  0  0  0  0  0  0  0
   27.7826    1.8569   -8.2366 F   0  0  0  0  0  0  0  0  0  0  0  0
   29.3603    0.2773   -7.7467 F   0  0  0  0  0  0  0  0  0  0  0  0
   28.7172    0.6431   -9.8204 F   0  0  0  0  0  0  0  0  0  0  0  0
   25.6960   -0.0177  -10.6900 C   0  0  0  0  0  0  0  0  0  0  0  0
   24.5347    0.0189  -11.4745 C   0  0  0  0  0  0  0  0  0  0  0  0
   24.8525    0.5696  -12.8300 C   0  0  0  0  0  0  0  0  0  0  0  0
   26.3463    0.2851  -12.9371 C   0  0  2  0  0  0  0  0  0  0  0  0
   26.8910    1.1928  -13.8100 F   0  0  0  0  0  0  0  0  0  0  0  0
   26.6116   -0.9914  -13.3388 F   0  0  0  0  0  0  0  0  0  0  0  0
   26.7920    0.5559  -11.4979 C   0  0  1  0  0  0  0  0  0  0  0  0
   26.8301    1.9641  -11.4364 O   0  0  0  0  0  0  0  0  0  0  0  0
   20.2006   -1.6966  -11.4681 C   0  0  0  0  0  0  0  0  0  0  0  0
  1  2  3  0
  2  3  1  0
  3  4  2  0
  4  5  1  0
  5  6  1  0
  5  7  2  0
  7  8  1  0
  8  9  1  0
  9 10  1  0
 10 11  2  0
 11 12  1  0
 12 13  2  0
 14 13  1  6
 14 15  2  0
 14 16  2  0
 14 17  1  0
 17 18  1  1
 17 19  1  0
 17 20  1  0
 13 21  1  0
 21 22  2  0
 23 22  1  1
 23 24  1  0
 24 25  1  6
 24 26  1  0
 24 27  1  0
 27 28  1  6
  8 29  2  0
 29  3  1  0
 22 10  1  0
 27 21  1  0
M  END
$$$$
