_rank10
     RDKit          3D

 29 31  0  0  0  0  0  0  0  0999 V2000
   18.1244    1.9509   -8.5160 N   0  0  0  0  0  0  0  0  0  0  0  0
   18.7418    1.1026   -9.1662 C   0  0  0  0  0  0  0  0  0  0  0  0
   19.4406    0.1760   -9.9014 C   0  0  0  0  0  0  0  0  0  0  0  0
   18.8962   -1.1007  -10.0531 C   0  0  0  0  0  0  0  0  0  0  0  0
   19.5343   -2.0695  -10.7577 C   0  0  0  0  0  0  0  0  0  0  0  0
   18.9755   -3.3063  -10.8867 F   0  0  0  0  0  0  0  0  0  0  0  0
   20.7494   -1.7987  -11.3429 C   0  0  0  0  0  0  0  0  0  0  0  0
   21.3273   -0.5514  -11.2211 C   0  0  0  0  0  0  0  0  0  0  0  0
   22.5523   -0.3292  -11.8283 O   0  0  0  0  0  0  0  0  0  0  0  0
   23.7246   -0.4995  -11.0826 C   0  0  0  0  0  0  0  0  0  0  0  0
   23.7102   -1.0906   -9.8455 C   0  0  0  0  0  0  0  0  0  0  0  0
   24.8798   -1.2423   -9.1407 C   0  0  0  0  0  0  0  0  0  0  0  0
   26.1263   -0.8149   -9.6245 C   0  0  0  0  0  0  0  0  0  0  0  0
   27.5274   -1.0889   -8.6348 S   0  0  2  0  0  6  0  0  0  0  0  0
   28.6564   -1.6226   -9.5185 O   0  0  0  0  0  0  0  0  0  0  0  0
   27.2690   -2.2362   -7.6632 O   0  0  0  0  0  0  0  0  0  0  0  0
   28.0610    0.2733   -7.6835 C   0  0  1  0  0  0  0  0  0  0  0  0
   27.1500    0.7087   -6.7550 F   0  0  0  0  0  0  0  0  0  0  0  0
   29.3033    0.0158   -7.0824 F   0  0  0  0  0  0  0  0  0  0  0  0
   28.3198    1.3904   -8.4933 F   0  0  0  0  0  0  0  0  0  0  0  0
   26.1358   -0.2267  -10.8536 C   0  0  0  0  0  0  0  0  0  0  0  0
   24.9384   -0.0775  -11.5672 C   0  0  0  0  0  0  0  0  0  0  0  0
   25.2129    0.5536  -12.8969 C   0  0  0  0  0  0  0  0  0  0  0  0
   26.6821    0.2057  -13.1071 C   0  0  2  0  0  0  0  0  0  0  0  0
   27.2268    1.1466  -13.9441 F   0  0  0  0  0  0  0  0  0  0  0  0
   26.8590   -1.0498  -13.6107 F   0  0  0  0  0  0  0  0  0  0  0  0
   27.2163    0.3502  -11.6799 C   0  0  1  0  0  0  0  0  0  0  0  0
   27.3309    1.7468  -11.5231 O   0  0  0  0  0  0  0  0  0  0  0  0
   20.6793    0.4226  -10.5092 C   0  0  0  0  0  0  0  0  0  0  0  0
  1  2  3  0
  2  3  1  0
  3  4  2  0
  4  5  1  0
  5  6  1  0
  5  7  2  0
  7  8  1  0
  8  9  1  0
  9 10  1  0
 10 11  2  0
 11 12  1  0
 12 13  2  0
 14 13  1  6
 14 15  2  0
 14 16  2  0
 14 17  1  0
 17 18  1  1
 17 19  1  0
 17 20  1  0
 13 21  1  0
 21 22  2  0
 23 22  1  1
 23 24  1  0
 24 25  1  6
 24 26  1  0
 24 27  1  0
 27 28  1  1
  8 29  2  0
 29  3  1  0
 22 10  1  0
 27 21  1  0
M  END
$$$$
