_rank14
     RDKit          3D

 29 31  0  0  0  0  0  0  0  0999 V2000
   18.7126   -4.0784  -10.9555 N   0  0  0  0  0  0  0  0  0  0  0  0
   19.0983   -2.9099  -10.8600 C   0  0  0  0  0  0  0  0  0  0  0  0
   19.5398   -1.6118  -10.7743 C   0  0  0  0  0  0  0  0  0  0  0  0
   18.7025   -0.6617  -10.1864 C   0  0  0  0  0  0  0  0  0  0  0  0
   19.0680    0.6408  -10.0758 C   0  0  0  0  0  0  0  0  0  0  0  0
   18.2267    1.5437   -9.4964 F   0  0  0  0  0  0  0  0  0  0  0  0
   20.2931    1.0478  -10.5509 C   0  0  0  0  0  0  0  0  0  0  0  0
   21.1553    0.1452  -11.1396 C   0  0  0  0  0  0  0  0  0  0  0  0
   22.3771    0.6051  -11.6028 O   0  0  0  0  0  0  0  0  0  0  0  0
   23.5533    0.1416  -11.0017 C   0  0  0  0  0  0  0  0  0  0  0  0
   23.5306   -0.5579   -9.8226 C   0  0  0  0  0  0  0  0  0  0  0  0
   24.7042   -0.9986   -9.2603 C   0  0  0  0  0  0  0  0  0  0  0  0
   25.9632   -0.7682   -9.8366 C   0  0  0  0  0  0  0  0  0  0  0  0
   27.3636   -1.4009   -9.0264 S   0  0  2  0  0  6  0  0  0  0  0  0
   28.3099   -1.9943  -10.0718 O   0  0  0  0  0  0  0  0  0  0  0  0
   26.9789   -2.6072   -8.1754 O   0  0  0  0  0  0  0  0  0  0  0  0
   28.2012   -0.2850   -7.9783 C   0  0  1  0  0  0  0  0  0  0  0  0
   29.2235   -0.8444   -7.2547 F   0  0  0  0  0  0  0  0  0  0  0  0
   28.6493    0.8392   -8.6900 F   0  0  0  0  0  0  0  0  0  0  0  0
   27.3336    0.2641   -7.0210 F   0  0  0  0  0  0  0  0  0  0  0  0
   25.9813   -0.0714  -11.0074 C   0  0  0  0  0  0  0  0  0  0  0  0
   24.7792    0.3729  -11.5757 C   0  0  0  0  0  0  0  0  0  0  0  0
   25.0556    1.0716  -12.8708 C   0  0  0  0  0  0  0  0  0  0  0  0
   26.4025    0.4751  -13.2630 C   0  0  2  0  0  0  0  0  0  0  0  0
   27.0473    1.3754  -14.0729 F   0  0  0  0  0  0  0  0  0  0  0  0
   26.2821   -0.7339  -13.8836 F   0  0  0  0  0  0  0  0  0  0  0  0
   27.0779    0.3709  -11.8932 C   0  0  1  0  0  0  0  0  0  0  0  0
   27.4804    1.6975  -11.6355 O   0  0  0  0  0  0  0  0  0  0  0  0
   20.7818   -1.1677  -11.2487 C   0  0  0  0  0  0  0  0  0  0  0  0
  1  2  3  0
  2  3  1  0
  3  4  2  0
  4  5  1  0
  5  6  1  0
  5  7  2  0
  7  8  1  0
  8  9  1  0
  9 10  1  0
 10 11  2  0
 11 12  1  0
 12 13  2  0
 14 13  1  6
 14 15  2  0
 14 16  2  0
 14 17  1  0
 17 18  1  1
 17 19  1  0
 17 20  1  0
 13 21  1  0
 21 22  2  0
 23 22  1  1
 23 24  1  0
 24 25  1  6
 24 26  1  0
 24 27  1  0
 27 28  1  1
  8 29  2  0
 29  3  1  0
 22 10  1  0
 27 21  1  0
M  END
$$$$
