_rank5
     RDKit          3D

 29 31  0  0  0  0  0  0  0  0999 V2000
   18.5395   -4.1450   -9.8355 N   0  0  0  0  0  0  0  0  0  0  0  0
   18.9774   -3.0058  -10.0194 C   0  0  0  0  0  0  0  0  0  0  0  0
   19.4519   -1.7300  -10.2053 C   0  0  0  0  0  0  0  0  0  0  0  0
   18.6855   -0.6604   -9.7382 C   0  0  0  0  0  0  0  0  0  0  0  0
   19.0865    0.6268   -9.8946 C   0  0  0  0  0  0  0  0  0  0  0  0
   18.3145    1.6486   -9.4271 F   0  0  0  0  0  0  0  0  0  0  0  0
   20.2773    0.8979  -10.5277 C   0  0  0  0  0  0  0  0  0  0  0  0
   21.0694   -0.1260  -11.0061 C   0  0  0  0  0  0  0  0  0  0  0  0
   22.2590    0.1992  -11.6368 O   0  0  0  0  0  0  0  0  0  0  0  0
   23.4710   -0.0868  -10.9975 C   0  0  0  0  0  0  0  0  0  0  0  0
   23.5093   -0.6681   -9.7563 C   0  0  0  0  0  0  0  0  0  0  0  0
   24.7167   -0.9356   -9.1577 C   0  0  0  0  0  0  0  0  0  0  0  0
   25.9509   -0.6399   -9.7575 C   0  0  0  0  0  0  0  0  0  0  0  0
   27.4012   -1.0515   -8.8944 S   0  0  2  0  0  6  0  0  0  0  0  0
   28.5381   -1.2322   -9.9020 O   0  0  0  0  0  0  0  0  0  0  0  0
   27.2648   -2.4349   -8.2662 O   0  0  0  0  0  0  0  0  0  0  0  0
   27.8591    0.0450   -7.6164 C   0  0  1  0  0  0  0  0  0  0  0  0
   28.5133    1.1726   -8.0433 F   0  0  0  0  0  0  0  0  0  0  0  0
   26.7550    0.3802   -6.8167 F   0  0  0  0  0  0  0  0  0  0  0  0
   28.7395   -0.5674   -6.7105 F   0  0  0  0  0  0  0  0  0  0  0  0
   25.9082   -0.0609  -10.9903 C   0  0  0  0  0  0  0  0  0  0  0  0
   24.6721    0.2068  -11.5951 C   0  0  0  0  0  0  0  0  0  0  0  0
   24.8871    0.8009  -12.9525 C   0  0  0  0  0  0  0  0  0  0  0  0
   26.2883    0.3038  -13.2895 C   0  0  2  0  0  0  0  0  0  0  0  0
   26.8472    1.1805  -14.1847 F   0  0  0  0  0  0  0  0  0  0  0  0
   26.2904   -0.9654  -13.7899 F   0  0  0  0  0  0  0  0  0  0  0  0
   26.9619    0.3989  -11.9182 C   0  0  1  0  0  0  0  0  0  0  0  0
   27.2314    1.7772  -11.7912 O   0  0  0  0  0  0  0  0  0  0  0  0
   20.6604   -1.4230  -10.8456 C   0  0  0  0  0  0  0  0  0  0  0  0
  1  2  3  0
  2  3  1  0
  3  4  2  0
  4  5  1  0
  5  6  1  0
  5  7  2  0
  7  8  1  0
  8  9  1  0
  9 10  1  0
 10 11  2  0
 11 12  1  0
 12 13  2  0
 14 13  1  6
 14 15  2  0
 14 16  2  0
 14 17  1  0
 17 18  1  6
 17 19  1  0
 17 20  1  0
 13 21  1  0
 21 22  2  0
 23 22  1  1
 23 24  1  0
 24 25  1  6
 24 26  1  0
 24 27  1  0
 27 28  1  1
  8 29  2  0
 29  3  1  0
 22 10  1  0
 27 21  1  0
M  END
$$$$
