_rank9
     RDKit          3D

 29 31  0  0  0  0  0  0  0  0999 V2000
   17.9953   -4.1875  -11.1726 N   0  0  0  0  0  0  0  0  0  0  0  0
   18.6078   -3.1276  -11.0157 C   0  0  0  0  0  0  0  0  0  0  0  0
   19.2687   -1.9361  -10.8393 C   0  0  0  0  0  0  0  0  0  0  0  0
   18.6744   -0.9578  -10.0397 C   0  0  0  0  0  0  0  0  0  0  0  0
   19.2644    0.2461   -9.8281 C   0  0  0  0  0  0  0  0  0  0  0  0
   18.6574    1.1801   -9.0420 F   0  0  0  0  0  0  0  0  0  0  0  0
   20.4798    0.5216  -10.4106 C   0  0  0  0  0  0  0  0  0  0  0  0
   21.1063   -0.4139  -11.2087 C   0  0  0  0  0  0  0  0  0  0  0  0
   22.3287   -0.0879  -11.7729 O   0  0  0  0  0  0  0  0  0  0  0  0
   23.5032   -0.3621  -11.0623 C   0  0  0  0  0  0  0  0  0  0  0  0
   23.4759   -0.9866   -9.8420 C   0  0  0  0  0  0  0  0  0  0  0  0
   24.6480   -1.2408   -9.1718 C   0  0  0  0  0  0  0  0  0  0  0  0
   25.9100   -0.8884   -9.6755 C   0  0  0  0  0  0  0  0  0  0  0  0
   27.3110   -1.2892   -8.7298 S   0  0  2  0  0  6  0  0  0  0  0  0
   28.2695   -2.1096   -9.5951 O   0  0  0  0  0  0  0  0  0  0  0  0
   26.9322   -2.2554   -7.6117 O   0  0  0  0  0  0  0  0  0  0  0  0
   28.1313    0.0577   -7.9826 C   0  0  1  0  0  0  0  0  0  0  0  0
   28.6344   -0.2062   -6.7340 F   0  0  0  0  0  0  0  0  0  0  0  0
   29.1290    0.5736   -8.8248 F   0  0  0  0  0  0  0  0  0  0  0  0
   27.2642    1.1472   -7.8044 F   0  0  0  0  0  0  0  0  0  0  0  0
   25.9324   -0.2666  -10.8877 C   0  0  0  0  0  0  0  0  0  0  0  0
   24.7321   -0.0127  -11.5661 C   0  0  0  0  0  0  0  0  0  0  0  0
   25.0194    0.6360  -12.8846 C   0  0  0  0  0  0  0  0  0  0  0  0
   26.4548    0.1919  -13.1418 C   0  0  2  0  0  0  0  0  0  0  0  0
   27.0452    1.1161  -13.9663 F   0  0  0  0  0  0  0  0  0  0  0  0
   26.5300   -1.0578  -13.6840 F   0  0  0  0  0  0  0  0  0  0  0  0
   27.0314    0.2565  -11.7252 C   0  0  1  0  0  0  0  0  0  0  0  0
   27.2487    1.6364  -11.5331 O   0  0  0  0  0  0  0  0  0  0  0  0
   20.5069   -1.6271  -11.4189 C   0  0  0  0  0  0  0  0  0  0  0  0
  1  2  3  0
  2  3  1  0
  3  4  2  0
  4  5  1  0
  5  6  1  0
  5  7  2  0
  7  8  1  0
  8  9  1  0
  9 10  1  0
 10 11  2  0
 11 12  1  0
 12 13  2  0
 14 13  1  6
 14 15  2  0
 14 16  2  0
 14 17  1  0
 17 18  1  1
 17 19  1  0
 17 20  1  0
 13 21  1  0
 21 22  2  0
 23 22  1  1
 23 24  1  0
 24 25  1  6
 24 26  1  0
 24 27  1  0
 27 28  1  1
  8 29  2  0
 29  3  1  0
 22 10  1  0
 27 21  1  0
M  END
$$$$
