_rank1
     RDKit          3D

 29 31  0  0  0  0  0  0  0  0999 V2000
   18.0240   -4.1440  -11.5699 N   0  0  0  0  0  0  0  0  0  0  0  0
   18.6131   -3.0780  -11.3695 C   0  0  0  0  0  0  0  0  0  0  0  0
   19.2501   -1.8840  -11.1331 C   0  0  0  0  0  0  0  0  0  0  0  0
   18.6329   -0.9556  -10.2927 C   0  0  0  0  0  0  0  0  0  0  0  0
   19.1986    0.2479  -10.0211 C   0  0  0  0  0  0  0  0  0  0  0  0
   18.5695    1.1325   -9.1961 F   0  0  0  0  0  0  0  0  0  0  0  0
   20.4119    0.5731  -10.5820 C   0  0  0  0  0  0  0  0  0  0  0  0
   21.0606   -0.3121  -11.4188 C   0  0  0  0  0  0  0  0  0  0  0  0
   22.2798    0.0628  -11.9589 O   0  0  0  0  0  0  0  0  0  0  0  0
   23.4543   -0.2106  -11.2481 C   0  0  0  0  0  0  0  0  0  0  0  0
   23.4305   -0.8731  -10.0479 C   0  0  0  0  0  0  0  0  0  0  0  0
   24.6025   -1.1253   -9.3767 C   0  0  0  0  0  0  0  0  0  0  0  0
   25.8609   -0.7330   -9.8594 C   0  0  0  0  0  0  0  0  0  0  0  0
   27.2626   -1.1359   -8.9157 S   0  0  2  0  0  6  0  0  0  0  0  0
   28.2860   -1.8206   -9.8236 O   0  0  0  0  0  0  0  0  0  0  0  0
   26.9177   -2.2173   -7.8965 O   0  0  0  0  0  0  0  0  0  0  0  0
   27.9861    0.1839   -8.0323 C   0  0  1  0  0  0  0  0  0  0  0  0
   28.1938   -0.0710   -6.7006 F   0  0  0  0  0  0  0  0  0  0  0  0
   29.1705    0.6172   -8.6491 F   0  0  0  0  0  0  0  0  0  0  0  0
   27.1699    1.3256   -8.0630 F   0  0  0  0  0  0  0  0  0  0  0  0
   25.8798   -0.0736  -11.0516 C   0  0  0  0  0  0  0  0  0  0  0  0
   24.6797    0.1780  -11.7312 C   0  0  0  0  0  0  0  0  0  0  0  0
   24.9638    0.8729  -13.0266 C   0  0  0  0  0  0  0  0  0  0  0  0
   26.4094    0.4647  -13.2863 C   0  0  2  0  0  0  0  0  0  0  0  0
   26.9875    1.4254  -14.0771 F   0  0  0  0  0  0  0  0  0  0  0  0
   26.5130   -0.7658  -13.8663 F   0  0  0  0  0  0  0  0  0  0  0  0
   26.9744    0.4965  -11.8639 C   0  0  1  0  0  0  0  0  0  0  0  0
   27.1633    1.8737  -11.6275 O   0  0  0  0  0  0  0  0  0  0  0  0
   20.4856   -1.5251  -11.6894 C   0  0  0  0  0  0  0  0  0  0  0  0
  1  2  3  0
  2  3  1  0
  3  4  2  0
  4  5  1  0
  5  6  1  0
  5  7  2  0
  7  8  1  0
  8  9  1  0
  9 10  1  0
 10 11  2  0
 11 12  1  0
 12 13  2  0
 14 13  1  6
 14 15  2  0
 14 16  2  0
 14 17  1  0
 17 18  1  1
 17 19  1  0
 17 20  1  0
 13 21  1  0
 21 22  2  0
 23 22  1  1
 23 24  1  0
 24 25  1  6
 24 26  1  0
 24 27  1  0
 27 28  1  1
  8 29  2  0
 29  3  1  0
 22 10  1  0
 27 21  1  0
M  END
$$$$
