_rank13
     RDKit          3D

 29 31  0  0  0  0  0  0  0  0999 V2000
   18.1977    2.2315   -8.8796 N   0  0  0  0  0  0  0  0  0  0  0  0
   18.7750    1.3309   -9.4952 C   0  0  0  0  0  0  0  0  0  0  0  0
   19.4290    0.3221  -10.1601 C   0  0  0  0  0  0  0  0  0  0  0  0
   18.8031   -0.9217  -10.2631 C   0  0  0  0  0  0  0  0  0  0  0  0
   19.3927   -1.9670  -10.8973 C   0  0  0  0  0  0  0  0  0  0  0  0
   18.7547   -3.1689  -10.9801 F   0  0  0  0  0  0  0  0  0  0  0  0
   20.6391   -1.8092  -11.4577 C   0  0  0  0  0  0  0  0  0  0  0  0
   21.2971   -0.5985  -11.3820 C   0  0  0  0  0  0  0  0  0  0  0  0
   22.5506   -0.4910  -11.9616 O   0  0  0  0  0  0  0  0  0  0  0  0
   23.6739   -0.3528  -11.1379 C   0  0  0  0  0  0  0  0  0  0  0  0
   23.6531   -0.7402   -9.8228 C   0  0  0  0  0  0  0  0  0  0  0  0
   24.7740   -0.5906   -9.0426 C   0  0  0  0  0  0  0  0  0  0  0  0
   25.9754   -0.0476   -9.5245 C   0  0  0  0  0  0  0  0  0  0  0  0
   27.3210    0.0641   -8.4315 S   0  0  2  0  0  6  0  0  0  0  0  0
   26.7906    0.3657   -7.0285 O   0  0  0  0  0  0  0  0  0  0  0  0
   28.1649    1.2918   -8.7597 O   0  0  0  0  0  0  0  0  0  0  0  0
   28.4008   -1.3067   -8.4166 C   0  0  1  0  0  0  0  0  0  0  0  0
   27.8853   -2.4287   -7.8192 F   0  0  0  0  0  0  0  0  0  0  0  0
   28.8676   -1.5978   -9.7083 F   0  0  0  0  0  0  0  0  0  0  0  0
   29.5769   -1.0214   -7.7053 F   0  0  0  0  0  0  0  0  0  0  0  0
   25.9913    0.3375  -10.8314 C   0  0  0  0  0  0  0  0  0  0  0  0
   24.8439    0.1795  -11.6213 C   0  0  0  0  0  0  0  0  0  0  0  0
   25.1222    0.6337  -13.0206 C   0  0  0  0  0  0  0  0  0  0  0  0
   26.6389    0.4992  -13.0938 C   0  0  2  0  0  0  0  0  0  0  0  0
   27.0986    1.3750  -14.0447 F   0  0  0  0  0  0  0  0  0  0  0  0
   27.0416   -0.7738  -13.3738 F   0  0  0  0  0  0  0  0  0  0  0  0
   27.0330    0.9465  -11.6839 C   0  0  1  0  0  0  0  0  0  0  0  0
   26.9232    2.3506  -11.7534 O   0  0  0  0  0  0  0  0  0  0  0  0
   20.6978    0.4529  -10.7412 C   0  0  0  0  0  0  0  0  0  0  0  0
  1  2  3  0
  2  3  1  0
  3  4  2  0
  4  5  1  0
  5  6  1  0
  5  7  2  0
  7  8  1  0
  8  9  1  0
  9 10  1  0
 10 11  2  0
 11 12  1  0
 12 13  2  0
 14 13  1  6
 14 15  2  0
 14 16  2  0
 14 17  1  0
 17 18  1  1
 17 19  1  0
 17 20  1  0
 13 21  1  0
 21 22  2  0
 23 22  1  1
 23 24  1  0
 24 25  1  6
 24 26  1  0
 24 27  1  0
 27 28  1  6
  8 29  2  0
 29  3  1  0
 22 10  1  0
 27 21  1  0
M  END
$$$$
