_rank9
     RDKit          3D

 21 23  0  0  0  0  0  0  0  0999 V2000
   27.1233    0.2898  -12.2825 O   0  0  0  0  0  0  0  0  0  0  0  0
   25.9775    0.1286  -11.8514 N   0  0  0  0  0  4  0  0  0  0  0  0
   24.9514    0.1070  -12.7736 O   0  0  0  0  0  1  0  0  0  0  0  0
   25.7153   -0.0471  -10.4815 C   0  0  0  0  0  0  0  0  0  0  0  0
   24.4850   -0.4336  -10.0448 C   0  0  0  0  0  0  0  0  0  0  0  0
   23.4089   -0.6887  -10.9142 N   0  0  0  0  0  0  0  0  0  0  0  0
   22.0370   -0.5524  -10.6316 C   0  0  0  0  0  0  0  0  0  0  0  0
   21.5355    0.3876   -9.7633 C   0  0  0  0  0  0  0  0  0  0  0  0
   20.1633    0.4749   -9.5216 C   0  0  0  0  0  0  0  0  0  0  0  0
   19.2805   -0.3787  -10.1477 C   0  0  0  0  0  0  0  0  0  0  0  0
   19.7640   -1.3284  -11.0226 C   0  0  0  0  0  0  0  0  0  0  0  0
   18.6285   -2.4167  -11.8227 Cl  0  0  0  0  0  0  0  0  0  0  0  0
   21.1131   -1.3969  -11.2455 C   0  0  0  0  0  0  0  0  0  0  0  0
   21.5907   -2.3151  -12.0966 F   0  0  0  0  0  0  0  0  0  0  0  0
   24.3120   -0.5949   -8.6721 C   0  0  0  0  0  0  0  0  0  0  0  0
   25.3398   -0.3747   -7.7822 C   0  0  0  0  0  0  0  0  0  0  0  0
   26.5767    0.0135   -8.2292 C   0  0  0  0  0  0  0  0  0  0  0  0
   27.7584    0.2967   -7.6063 N   0  0  0  0  0  0  0  0  0  0  0  0
   28.6124    0.6151   -8.5419 O   0  0  0  0  0  0  0  0  0  0  0  0
   28.0517    0.5535   -9.7227 N   0  0  0  0  0  0  0  0  0  0  0  0
   26.7702    0.1790   -9.5772 C   0  0  0  0  0  0  0  0  0  0  0  0
  1  2  2  0
  2  3  1  0
  2  4  1  0
  4  5  2  0
  5  6  1  0
  6  7  1  0
  7  8  2  0
  8  9  1  0
  9 10  2  0
 10 11  1  0
 11 12  1  0
 11 13  2  0
 13 14  1  0
  5 15  1  0
 15 16  2  0
 16 17  1  0
 17 18  2  0
 18 19  1  0
 19 20  1  0
 20 21  2  0
 21  4  1  0
 13  7  1  0
 21 17  1  0
M  CHG  2   2   1   3  -1
M  END
$$$$
