_rank16
     RDKit          3D

 21 23  0  0  0  0  0  0  0  0999 V2000
   24.8142   -0.7926  -12.7151 O   0  0  0  0  0  0  0  0  0  0  0  0
   25.7257   -0.5368  -11.9222 N   0  0  0  0  0  4  0  0  0  0  0  0
   27.0122   -0.5206  -12.4206 O   0  0  0  0  0  1  0  0  0  0  0  0
   25.4766   -0.2520  -10.5683 C   0  0  0  0  0  0  0  0  0  0  0  0
   24.2297   -0.3884  -10.0388 C   0  0  0  0  0  0  0  0  0  0  0  0
   23.1223   -0.8233  -10.7892 N   0  0  0  0  0  0  0  0  0  0  0  0
   21.7756   -0.4568  -10.6079 C   0  0  0  0  0  0  0  0  0  0  0  0
   21.3870    0.6905   -9.9586 C   0  0  0  0  0  0  0  0  0  0  0  0
   20.0345    1.0016   -9.8081 C   0  0  0  0  0  0  0  0  0  0  0  0
   19.0582    0.1660  -10.3071 C   0  0  0  0  0  0  0  0  0  0  0  0
   19.4278   -0.9897  -10.9619 C   0  0  0  0  0  0  0  0  0  0  0  0
   18.1734   -2.0540  -11.6004 Cl  0  0  0  0  0  0  0  0  0  0  0  0
   20.7597   -1.2758  -11.0986 C   0  0  0  0  0  0  0  0  0  0  0  0
   21.1271   -2.3955  -11.7364 F   0  0  0  0  0  0  0  0  0  0  0  0
   24.0707   -0.0958   -8.6862 C   0  0  0  0  0  0  0  0  0  0  0  0
   25.1278    0.3163   -7.9056 C   0  0  0  0  0  0  0  0  0  0  0  0
   26.3812    0.4506   -8.4455 C   0  0  0  0  0  0  0  0  0  0  0  0
   27.5915    0.8267   -7.9371 N   0  0  0  0  0  0  0  0  0  0  0  0
   28.4491    0.7695   -8.9207 O   0  0  0  0  0  0  0  0  0  0  0  0
   27.8638    0.3811  -10.0248 N   0  0  0  0  0  0  0  0  0  0  0  0
   26.5615    0.1681   -9.7757 C   0  0  0  0  0  0  0  0  0  0  0  0
  1  2  2  0
  2  3  1  0
  2  4  1  0
  4  5  2  0
  5  6  1  0
  6  7  1  0
  7  8  2  0
  8  9  1  0
  9 10  2  0
 10 11  1  0
 11 12  1  0
 11 13  2  0
 13 14  1  0
  5 15  1  0
 15 16  2  0
 16 17  1  0
 17 18  2  0
 18 19  1  0
 19 20  1  0
 20 21  2  0
 21  4  1  0
 13  7  1  0
 21 17  1  0
M  CHG  2   2   1   3  -1
M  END
$$$$
