_rank6
     RDKit          3D

 21 23  0  0  0  0  0  0  0  0999 V2000
   27.1390   -0.0135  -12.3212 O   0  0  0  0  0  0  0  0  0  0  0  0
   25.9830    0.0907  -11.8996 N   0  0  0  0  0  4  0  0  0  0  0  0
   24.9859    0.2970  -12.8307 O   0  0  0  0  0  1  0  0  0  0  0  0
   25.6773   -0.0144  -10.5315 C   0  0  0  0  0  0  0  0  0  0  0  0
   24.4118   -0.2922  -10.1130 C   0  0  0  0  0  0  0  0  0  0  0  0
   23.3398   -0.4988  -11.0000 N   0  0  0  0  0  0  0  0  0  0  0  0
   21.9662   -0.3877  -10.7141 C   0  0  0  0  0  0  0  0  0  0  0  0
   21.4201    0.6778  -10.0391 C   0  0  0  0  0  0  0  0  0  0  0  0
   20.0489    0.7329   -9.7833 C   0  0  0  0  0  0  0  0  0  0  0  0
   19.2116   -0.2792  -10.2015 C   0  0  0  0  0  0  0  0  0  0  0  0
   19.7402   -1.3566  -10.8804 C   0  0  0  0  0  0  0  0  0  0  0  0
   18.6628   -2.6478  -11.4151 Cl  0  0  0  0  0  0  0  0  0  0  0  0
   21.0876   -1.3908  -11.1209 C   0  0  0  0  0  0  0  0  0  0  0  0
   21.6087   -2.4329  -11.7827 F   0  0  0  0  0  0  0  0  0  0  0  0
   24.1960   -0.3895   -8.7404 C   0  0  0  0  0  0  0  0  0  0  0  0
   25.2168   -0.2133   -7.8328 C   0  0  0  0  0  0  0  0  0  0  0  0
   26.4892    0.0654   -8.2616 C   0  0  0  0  0  0  0  0  0  0  0  0
   27.6743    0.2831   -7.6190 N   0  0  0  0  0  0  0  0  0  0  0  0
   28.5708    0.5025   -8.5432 O   0  0  0  0  0  0  0  0  0  0  0  0
   28.0342    0.4390   -9.7350 N   0  0  0  0  0  0  0  0  0  0  0  0
   26.7253    0.1662   -9.6092 C   0  0  0  0  0  0  0  0  0  0  0  0
  1  2  2  0
  2  3  1  0
  2  4  1  0
  4  5  2  0
  5  6  1  0
  6  7  1  0
  7  8  2  0
  8  9  1  0
  9 10  2  0
 10 11  1  0
 11 12  1  0
 11 13  2  0
 13 14  1  0
  5 15  1  0
 15 16  2  0
 16 17  1  0
 17 18  2  0
 18 19  1  0
 19 20  1  0
 20 21  2  0
 21  4  1  0
 13  7  1  0
 21 17  1  0
M  CHG  2   2   1   3  -1
M  END
$$$$
