_rank1
     RDKit          3D

 21 23  0  0  0  0  0  0  0  0999 V2000
   27.2106   -0.7112  -12.3593 O   0  0  0  0  0  0  0  0  0  0  0  0
   26.1103   -0.2571  -12.0307 N   0  0  0  0  0  4  0  0  0  0  0  0
   25.2790    0.1809  -13.0410 O   0  0  0  0  0  1  0  0  0  0  0  0
   25.6993   -0.2006  -10.6875 C   0  0  0  0  0  0  0  0  0  0  0  0
   24.4011   -0.4175  -10.3396 C   0  0  0  0  0  0  0  0  0  0  0  0
   23.3963   -0.7164  -11.2777 N   0  0  0  0  0  0  0  0  0  0  0  0
   22.0361   -0.9655  -11.0163 C   0  0  0  0  0  0  0  0  0  0  0  0
   21.4083   -2.1432  -11.3451 C   0  0  0  0  0  0  0  0  0  0  0  0
   20.0546   -2.3330  -11.0614 C   0  0  0  0  0  0  0  0  0  0  0  0
   19.3170   -1.3447  -10.4455 C   0  0  0  0  0  0  0  0  0  0  0  0
   19.9288   -0.1561  -10.1076 C   0  0  0  0  0  0  0  0  0  0  0  0
   18.9798    1.1043   -9.3172 Cl  0  0  0  0  0  0  0  0  0  0  0  0
   21.2572    0.0094  -10.3946 C   0  0  0  0  0  0  0  0  0  0  0  0
   21.8599    1.1604  -10.0666 F   0  0  0  0  0  0  0  0  0  0  0  0
   24.0795   -0.3535   -8.9858 C   0  0  0  0  0  0  0  0  0  0  0  0
   25.0310   -0.0821   -8.0278 C   0  0  0  0  0  0  0  0  0  0  0  0
   26.3370    0.1345   -8.3854 C   0  0  0  0  0  0  0  0  0  0  0  0
   27.4732    0.4151   -7.6819 N   0  0  0  0  0  0  0  0  0  0  0  0
   28.4413    0.5186   -8.5526 O   0  0  0  0  0  0  0  0  0  0  0  0
   27.9961    0.3221   -9.7674 N   0  0  0  0  0  0  0  0  0  0  0  0
   26.6769    0.0767   -9.7132 C   0  0  0  0  0  0  0  0  0  0  0  0
  1  2  2  0
  2  3  1  0
  2  4  1  0
  4  5  2  0
  5  6  1  0
  6  7  1  0
  7  8  2  0
  8  9  1  0
  9 10  2  0
 10 11  1  0
 11 12  1  0
 11 13  2  0
 13 14  1  0
  5 15  1  0
 15 16  2  0
 16 17  1  0
 17 18  2  0
 18 19  1  0
 19 20  1  0
 20 21  2  0
 21  4  1  0
 13  7  1  0
 21 17  1  0
M  CHG  2   2   1   3  -1
M  END
$$$$
