_rank14
     RDKit          3D

 21 23  0  0  0  0  0  0  0  0999 V2000
   24.8626   -0.1070  -12.8773 O   0  0  0  0  0  0  0  0  0  0  0  0
   25.7348   -0.0221  -12.0072 N   0  0  0  0  0  4  0  0  0  0  0  0
   27.0319    0.1848  -12.4294 O   0  0  0  0  0  1  0  0  0  0  0  0
   25.4310   -0.1109  -10.6375 C   0  0  0  0  0  0  0  0  0  0  0  0
   24.1572   -0.3356  -10.2128 C   0  0  0  0  0  0  0  0  0  0  0  0
   23.0736   -0.5005  -11.0945 N   0  0  0  0  0  0  0  0  0  0  0  0
   21.7035   -0.4337  -10.7797 C   0  0  0  0  0  0  0  0  0  0  0  0
   21.1156    0.6651  -10.2001 C   0  0  0  0  0  0  0  0  0  0  0  0
   19.7502    0.6733   -9.9096 C   0  0  0  0  0  0  0  0  0  0  0  0
   18.9607   -0.4195  -10.1972 C   0  0  0  0  0  0  0  0  0  0  0  0
   19.5318   -1.5314  -10.7790 C   0  0  0  0  0  0  0  0  0  0  0  0
   18.5154   -2.9263  -11.1469 Cl  0  0  0  0  0  0  0  0  0  0  0  0
   20.8726   -1.5186  -11.0557 C   0  0  0  0  0  0  0  0  0  0  0  0
   21.4347   -2.5941  -11.6239 F   0  0  0  0  0  0  0  0  0  0  0  0
   23.9436   -0.4203   -8.8389 C   0  0  0  0  0  0  0  0  0  0  0  0
   24.9748   -0.2836   -7.9363 C   0  0  0  0  0  0  0  0  0  0  0  0
   26.2556   -0.0583   -8.3713 C   0  0  0  0  0  0  0  0  0  0  0  0
   27.4515    0.1124   -7.7345 N   0  0  0  0  0  0  0  0  0  0  0  0
   28.3522    0.2924   -8.6632 O   0  0  0  0  0  0  0  0  0  0  0  0
   27.8080    0.2478   -9.8525 N   0  0  0  0  0  0  0  0  0  0  0  0
   26.4896    0.0291   -9.7202 C   0  0  0  0  0  0  0  0  0  0  0  0
  1  2  2  0
  2  3  1  0
  2  4  1  0
  4  5  2  0
  5  6  1  0
  6  7  1  0
  7  8  2  0
  8  9  1  0
  9 10  2  0
 10 11  1  0
 11 12  1  0
 11 13  2  0
 13 14  1  0
  5 15  1  0
 15 16  2  0
 16 17  1  0
 17 18  2  0
 18 19  1  0
 19 20  1  0
 20 21  2  0
 21  4  1  0
 13  7  1  0
 21 17  1  0
M  CHG  2   2   1   3  -1
M  END
$$$$
