_rank4
     RDKit          3D

 21 23  0  0  0  0  0  0  0  0999 V2000
   25.2108   -0.7316  -12.9982 O   0  0  0  0  0  0  0  0  0  0  0  0
   25.8303   -0.0501  -12.1756 N   0  0  0  0  0  4  0  0  0  0  0  0
   26.8348    0.7644  -12.6566 O   0  0  0  0  0  1  0  0  0  0  0  0
   25.5231   -0.0775  -10.8041 C   0  0  0  0  0  0  0  0  0  0  0  0
   24.3230   -0.5438  -10.3614 C   0  0  0  0  0  0  0  0  0  0  0  0
   23.3247   -1.0306  -11.2247 N   0  0  0  0  0  0  0  0  0  0  0  0
   21.9313   -0.9483  -11.0451 C   0  0  0  0  0  0  0  0  0  0  0  0
   21.0726   -1.9853  -11.3213 C   0  0  0  0  0  0  0  0  0  0  0  0
   19.6978   -1.8447  -11.1240 C   0  0  0  0  0  0  0  0  0  0  0  0
   19.1701   -0.6636  -10.6478 C   0  0  0  0  0  0  0  0  0  0  0  0
   20.0151    0.3884  -10.3645 C   0  0  0  0  0  0  0  0  0  0  0  0
   19.3337    1.8970   -9.7530 Cl  0  0  0  0  0  0  0  0  0  0  0  0
   21.3601    0.2294  -10.5650 C   0  0  0  0  0  0  0  0  0  0  0  0
   22.1883    1.2461  -10.2893 F   0  0  0  0  0  0  0  0  0  0  0  0
   24.1026   -0.5464   -8.9860 C   0  0  0  0  0  0  0  0  0  0  0  0
   25.0557   -0.0968   -8.0993 C   0  0  0  0  0  0  0  0  0  0  0  0
   26.2627    0.3707   -8.5523 C   0  0  0  0  0  0  0  0  0  0  0  0
   27.3746    0.8657   -7.9333 N   0  0  0  0  0  0  0  0  0  0  0  0
   28.2328    1.1575   -8.8738 O   0  0  0  0  0  0  0  0  0  0  0  0
   27.7400    0.8806  -10.0540 N   0  0  0  0  0  0  0  0  0  0  0  0
   26.5018    0.3828   -9.9031 C   0  0  0  0  0  0  0  0  0  0  0  0
  1  2  2  0
  2  3  1  0
  2  4  1  0
  4  5  2  0
  5  6  1  0
  6  7  1  0
  7  8  2  0
  8  9  1  0
  9 10  2  0
 10 11  1  0
 11 12  1  0
 11 13  2  0
 13 14  1  0
  5 15  1  0
 15 16  2  0
 16 17  1  0
 17 18  2  0
 18 19  1  0
 19 20  1  0
 20 21  2  0
 21  4  1  0
 13  7  1  0
 21 17  1  0
M  CHG  2   2   1   3  -1
M  END
$$$$
