_rank15
     RDKit          3D

 21 23  0  0  0  0  0  0  0  0999 V2000
   24.4971    1.8752  -12.1340 O   0  0  0  0  0  0  0  0  0  0  0  0
   25.4420    1.2118  -11.6959 N   0  0  0  0  0  4  0  0  0  0  0  0
   26.6618    1.3559  -12.3245 O   0  0  0  0  0  1  0  0  0  0  0  0
   25.3010    0.3554  -10.5901 C   0  0  0  0  0  0  0  0  0  0  0  0
   24.1104    0.2356   -9.9407 C   0  0  0  0  0  0  0  0  0  0  0  0
   22.9543    0.9389  -10.3248 N   0  0  0  0  0  0  0  0  0  0  0  0
   21.6709    0.4069  -10.5496 C   0  0  0  0  0  0  0  0  0  0  0  0
   20.5679    1.1836  -10.8127 C   0  0  0  0  0  0  0  0  0  0  0  0
   19.3185    0.5988  -11.0269 C   0  0  0  0  0  0  0  0  0  0  0  0
   19.1623   -0.7700  -10.9796 C   0  0  0  0  0  0  0  0  0  0  0  0
   20.2568   -1.5664  -10.7173 C   0  0  0  0  0  0  0  0  0  0  0  0
   20.0508   -3.3180  -10.6603 Cl  0  0  0  0  0  0  0  0  0  0  0  0
   21.4730   -0.9725  -10.5103 C   0  0  0  0  0  0  0  0  0  0  0  0
   22.5422   -1.7397  -10.2578 F   0  0  0  0  0  0  0  0  0  0  0  0
   24.0530   -0.6427   -8.8611 C   0  0  0  0  0  0  0  0  0  0  0  0
   25.1528   -1.3671   -8.4580 C   0  0  0  0  0  0  0  0  0  0  0  0
   26.3487   -1.2420   -9.1174 C   0  0  0  0  0  0  0  0  0  0  0  0
   27.5783   -1.8140   -8.9569 N   0  0  0  0  0  0  0  0  0  0  0  0
   28.3509   -1.3164   -9.8851 O   0  0  0  0  0  0  0  0  0  0  0  0
   27.6934   -0.4632  -10.6282 N   0  0  0  0  0  0  0  0  0  0  0  0
   26.4287   -0.3826  -10.1836 C   0  0  0  0  0  0  0  0  0  0  0  0
  1  2  2  0
  2  3  1  0
  2  4  1  0
  4  5  2  0
  5  6  1  0
  6  7  1  0
  7  8  2  0
  8  9  1  0
  9 10  2  0
 10 11  1  0
 11 12  1  0
 11 13  2  0
 13 14  1  0
  5 15  1  0
 15 16  2  0
 16 17  1  0
 17 18  2  0
 18 19  1  0
 19 20  1  0
 20 21  2  0
 21  4  1  0
 13  7  1  0
 21 17  1  0
M  CHG  2   2   1   3  -1
M  END
$$$$
