_rank3
     RDKit          3D

 21 23  0  0  0  0  0  0  0  0999 V2000
   27.1471    0.2774  -12.6253 O   0  0  0  0  0  0  0  0  0  0  0  0
   25.9801    0.2985  -12.2222 N   0  0  0  0  0  4  0  0  0  0  0  0
   24.9861    0.4422  -13.1682 O   0  0  0  0  0  1  0  0  0  0  0  0
   25.6604    0.1629  -10.8599 C   0  0  0  0  0  0  0  0  0  0  0  0
   24.3892   -0.1161  -10.4602 C   0  0  0  0  0  0  0  0  0  0  0  0
   23.3244   -0.2940  -11.3620 N   0  0  0  0  0  0  0  0  0  0  0  0
   21.9492   -0.3034  -11.0626 C   0  0  0  0  0  0  0  0  0  0  0  0
   21.3283    0.6859  -10.3382 C   0  0  0  0  0  0  0  0  0  0  0  0
   19.9595    0.6221  -10.0714 C   0  0  0  0  0  0  0  0  0  0  0  0
   19.1997   -0.4336  -10.5279 C   0  0  0  0  0  0  0  0  0  0  0  0
   19.8042   -1.4359  -11.2567 C   0  0  0  0  0  0  0  0  0  0  0  0
   18.8257   -2.7835  -11.8403 Cl  0  0  0  0  0  0  0  0  0  0  0  0
   21.1477   -1.3539  -11.5072 C   0  0  0  0  0  0  0  0  0  0  0  0
   21.7421   -2.3224  -12.2173 F   0  0  0  0  0  0  0  0  0  0  0  0
   24.1595   -0.2447   -9.0924 C   0  0  0  0  0  0  0  0  0  0  0  0
   25.1727   -0.0974   -8.1712 C   0  0  0  0  0  0  0  0  0  0  0  0
   26.4510    0.1828   -8.5811 C   0  0  0  0  0  0  0  0  0  0  0  0
   27.6313    0.3768   -7.9223 N   0  0  0  0  0  0  0  0  0  0  0  0
   28.5381    0.6120   -8.8324 O   0  0  0  0  0  0  0  0  0  0  0  0
   28.0125    0.5808  -10.0305 N   0  0  0  0  0  0  0  0  0  0  0  0
   26.7007    0.3141   -9.9236 C   0  0  0  0  0  0  0  0  0  0  0  0
  1  2  2  0
  2  3  1  0
  2  4  1  0
  4  5  2  0
  5  6  1  0
  6  7  1  0
  7  8  2  0
  8  9  1  0
  9 10  2  0
 10 11  1  0
 11 12  1  0
 11 13  2  0
 13 14  1  0
  5 15  1  0
 15 16  2  0
 16 17  1  0
 17 18  2  0
 18 19  1  0
 19 20  1  0
 20 21  2  0
 21  4  1  0
 13  7  1  0
 21 17  1  0
M  CHG  2   2   1   3  -1
M  END
$$$$
