_rank10
     RDKit          3D

 21 23  0  0  0  0  0  0  0  0999 V2000
   25.1636    0.0187  -12.8291 O   0  0  0  0  0  0  0  0  0  0  0  0
   26.0280    0.0183  -11.9473 N   0  0  0  0  0  4  0  0  0  0  0  0
   27.3446    0.1012  -12.3515 O   0  0  0  0  0  1  0  0  0  0  0  0
   25.6987   -0.0434  -10.5820 C   0  0  0  0  0  0  0  0  0  0  0  0
   24.4121   -0.2279  -10.1765 C   0  0  0  0  0  0  0  0  0  0  0  0
   23.3397   -0.3757  -11.0747 N   0  0  0  0  0  0  0  0  0  0  0  0
   21.9660   -0.3573  -10.7691 C   0  0  0  0  0  0  0  0  0  0  0  0
   21.3643    0.6555  -10.0611 C   0  0  0  0  0  0  0  0  0  0  0  0
   19.9960    0.6187   -9.7870 C   0  0  0  0  0  0  0  0  0  0  0  0
   19.2173   -0.4332  -10.2198 C   0  0  0  0  0  0  0  0  0  0  0  0
   19.8023   -1.4589  -10.9318 C   0  0  0  0  0  0  0  0  0  0  0  0
   18.7997   -2.8015  -11.4850 Cl  0  0  0  0  0  0  0  0  0  0  0  0
   21.1457   -1.4032  -11.1898 C   0  0  0  0  0  0  0  0  0  0  0  0
   21.7213   -2.3945  -11.8838 F   0  0  0  0  0  0  0  0  0  0  0  0
   24.1730   -0.2880   -8.8056 C   0  0  0  0  0  0  0  0  0  0  0  0
   25.1920   -0.1667   -7.8870 C   0  0  0  0  0  0  0  0  0  0  0  0
   26.4856    0.0181   -8.3027 C   0  0  0  0  0  0  0  0  0  0  0  0
   27.6747    0.1652   -7.6475 N   0  0  0  0  0  0  0  0  0  0  0  0
   28.5956    0.3082   -8.5626 O   0  0  0  0  0  0  0  0  0  0  0  0
   28.0708    0.2619   -9.7605 N   0  0  0  0  0  0  0  0  0  0  0  0
   26.7449    0.0806   -9.6483 C   0  0  0  0  0  0  0  0  0  0  0  0
  1  2  2  0
  2  3  1  0
  2  4  1  0
  4  5  2  0
  5  6  1  0
  6  7  1  0
  7  8  2  0
  8  9  1  0
  9 10  2  0
 10 11  1  0
 11 12  1  0
 11 13  2  0
 13 14  1  0
  5 15  1  0
 15 16  2  0
 16 17  1  0
 17 18  2  0
 18 19  1  0
 19 20  1  0
 20 21  2  0
 21  4  1  0
 13  7  1  0
 21 17  1  0
M  CHG  2   2   1   3  -1
M  END
$$$$
