_rank2
     RDKit          3D

 27 29  0  0  0  0  0  0  0  0999 V2000
   28.2621    0.6108   -7.7100 C   0  0  0  0  0  0  0  0  0  0  0  0
   27.5217   -0.8480   -8.3851 S   0  0  2  0  0  6  0  0  0  0  0  0
   27.1967   -1.7538   -7.2017 O   0  0  0  0  0  0  0  0  0  0  0  0
   28.5668   -1.6028   -9.1663 O   0  0  0  0  0  0  0  0  0  0  0  0
   26.0936   -0.5673   -9.3103 C   0  0  0  0  0  0  0  0  0  0  0  0
   24.8658   -0.8283   -8.7580 C   0  0  0  0  0  0  0  0  0  0  0  0
   23.6802   -0.6411   -9.4022 C   0  0  0  0  0  0  0  0  0  0  0  0
   23.6860   -0.1590  -10.7005 C   0  0  0  0  0  0  0  0  0  0  0  0
   22.4733    0.0071  -11.3044 O   0  0  0  0  0  0  0  0  0  0  0  0
   21.2147   -0.2737  -10.8865 C   0  0  0  0  0  0  0  0  0  0  0  0
   20.5267    0.7845  -10.2654 C   0  0  0  0  0  0  0  0  0  0  0  0
   19.2524    0.6230   -9.8034 C   0  0  0  0  0  0  0  0  0  0  0  0
   18.5924    1.6627   -9.1959 F   0  0  0  0  0  0  0  0  0  0  0  0
   18.6301   -0.5931   -9.9478 C   0  0  0  0  0  0  0  0  0  0  0  0
   19.2765   -1.6687  -10.5582 C   0  0  0  0  0  0  0  0  0  0  0  0
   18.6435   -2.9331  -10.7079 C   0  0  0  0  0  0  0  0  0  0  0  0
   18.1186   -3.9598  -10.8474 N   0  0  0  0  0  0  0  0  0  0  0  0
   20.5558   -1.4493  -11.0031 C   0  0  0  0  0  0  0  0  0  0  0  0
   24.9020    0.1156  -11.2986 C   0  0  0  0  0  0  0  0  0  0  0  0
   26.1077   -0.0877  -10.6024 C   0  0  0  0  0  0  0  0  0  0  0  0
   27.2563    0.2706  -11.4467 C   0  0  2  0  0  0  0  0  0  0  0  0
   27.8521    1.4453  -11.0013 O   0  0  0  0  0  0  0  0  0  0  0  0
   26.7023    0.5347  -12.8156 C   0  0  2  0  0  0  0  0  0  0  0  0
   27.0576   -0.4298  -13.7535 F   0  0  0  0  0  0  0  0  0  0  0  0
   27.2017    1.7411  -13.3236 F   0  0  0  0  0  0  0  0  0  0  0  0
   25.1968    0.5676  -12.6706 C   0  0  2  0  0  0  0  0  0  0  0  0
   24.8115    1.8486  -12.9630 F   0  0  0  0  0  0  0  0  0  0  0  0
  1  2  1  1
  2  3  2  0
  2  4  2  0
  2  5  1  6
  5  6  2  0
  6  7  1  0
  7  8  2  0
  8  9  1  0
  9 10  1  0
 10 11  2  0
 11 12  1  0
 12 13  1  0
 12 14  2  0
 14 15  1  0
 15 16  1  0
 16 17  3  0
 15 18  2  0
  8 19  1  0
 19 20  2  0
 20 21  1  0
 21 22  1  1
 21 23  1  0
 23 24  1  6
 23 25  1  0
 23 26  1  0
 26 27  1  1
 20  5  1  0
 18 10  1  0
 26 19  1  0
M  END
$$$$
