_rank13
     RDKit          3D

 27 29  0  0  0  0  0  0  0  0999 V2000
   28.1687    0.6249   -7.5390 C   0  0  0  0  0  0  0  0  0  0  0  0
   27.7481   -0.7388   -8.5857 S   0  0  2  0  0  6  0  0  0  0  0  0
   27.5933   -1.9510   -7.6731 O   0  0  0  0  0  0  0  0  0  0  0  0
   28.9362   -1.0655   -9.4540 O   0  0  0  0  0  0  0  0  0  0  0  0
   26.3077   -0.5193   -9.5085 C   0  0  0  0  0  0  0  0  0  0  0  0
   25.1003   -0.8995   -8.9810 C   0  0  0  0  0  0  0  0  0  0  0  0
   23.9073   -0.7694   -9.6258 C   0  0  0  0  0  0  0  0  0  0  0  0
   23.8835   -0.2228  -10.8980 C   0  0  0  0  0  0  0  0  0  0  0  0
   22.6648   -0.1177  -11.5037 O   0  0  0  0  0  0  0  0  0  0  0  0
   21.4134   -0.3903  -11.0595 C   0  0  0  0  0  0  0  0  0  0  0  0
   20.7445    0.6733  -10.4269 C   0  0  0  0  0  0  0  0  0  0  0  0
   19.4790    0.5203   -9.9385 C   0  0  0  0  0  0  0  0  0  0  0  0
   18.8376    1.5651   -9.3201 F   0  0  0  0  0  0  0  0  0  0  0  0
   18.8468   -0.6925  -10.0674 C   0  0  0  0  0  0  0  0  0  0  0  0
   19.4743   -1.7732  -10.6885 C   0  0  0  0  0  0  0  0  0  0  0  0
   18.8310   -3.0341  -10.8223 C   0  0  0  0  0  0  0  0  0  0  0  0
   18.2905   -4.0575  -10.9203 N   0  0  0  0  0  0  0  0  0  0  0  0
   20.7455   -1.5622  -11.1600 C   0  0  0  0  0  0  0  0  0  0  0  0
   25.0784    0.1723  -11.4706 C   0  0  0  0  0  0  0  0  0  0  0  0
   26.2924    0.0249  -10.7747 C   0  0  0  0  0  0  0  0  0  0  0  0
   27.4150    0.5108  -11.5895 C   0  0  2  0  0  0  0  0  0  0  0  0
   27.9183    1.7028  -11.0802 O   0  0  0  0  0  0  0  0  0  0  0  0
   26.8499    0.8018  -12.9483 C   0  0  2  0  0  0  0  0  0  0  0  0
   27.2817   -0.0844  -13.9303 F   0  0  0  0  0  0  0  0  0  0  0  0
   27.2595    2.0665  -13.3905 F   0  0  0  0  0  0  0  0  0  0  0  0
   25.3455    0.7142  -12.8154 C   0  0  2  0  0  0  0  0  0  0  0  0
   24.8661    1.9759  -13.0466 F   0  0  0  0  0  0  0  0  0  0  0  0
  1  2  1  1
  2  3  2  0
  2  4  2  0
  2  5  1  6
  5  6  2  0
  6  7  1  0
  7  8  2  0
  8  9  1  0
  9 10  1  0
 10 11  2  0
 11 12  1  0
 12 13  1  0
 12 14  2  0
 14 15  1  0
 15 16  1  0
 16 17  3  0
 15 18  2  0
  8 19  1  0
 19 20  2  0
 20 21  1  0
 21 22  1  1
 21 23  1  0
 23 24  1  6
 23 25  1  0
 23 26  1  0
 26 27  1  1
 20  5  1  0
 18 10  1  0
 26 19  1  0
M  END
$$$$
