_rank3
     RDKit          3D

 27 29  0  0  0  0  0  0  0  0999 V2000
   28.9051   -1.5378   -8.8297 C   0  0  0  0  0  0  0  0  0  0  0  0
   27.6598   -0.3477   -8.4236 S   0  0  2  0  0  6  0  0  0  0  0  0
   28.3244    1.0217   -8.5200 O   0  0  0  0  0  0  0  0  0  0  0  0
   27.3059   -0.4973   -6.9660 O   0  0  0  0  0  0  0  0  0  0  0  0
   26.2668   -0.3895   -9.4396 C   0  0  0  0  0  0  0  0  0  0  0  0
   25.0903   -0.9023   -8.9561 C   0  0  0  0  0  0  0  0  0  0  0  0
   23.9358   -0.9805   -9.6749 C   0  0  0  0  0  0  0  0  0  0  0  0
   23.9214   -0.5217  -10.9815 C   0  0  0  0  0  0  0  0  0  0  0  0
   22.7423   -0.6259  -11.6611 O   0  0  0  0  0  0  0  0  0  0  0  0
   21.4563   -0.6460  -11.2328 C   0  0  0  0  0  0  0  0  0  0  0  0
   20.7068   -1.7775  -11.6027 C   0  0  0  0  0  0  0  0  0  0  0  0
   19.4005   -1.9116  -11.2296 C   0  0  0  0  0  0  0  0  0  0  0  0
   18.6784   -3.0193  -11.5995 F   0  0  0  0  0  0  0  0  0  0  0  0
   18.8073   -0.9256  -10.4793 C   0  0  0  0  0  0  0  0  0  0  0  0
   19.5150    0.2126  -10.0907 C   0  0  0  0  0  0  0  0  0  0  0  0
   18.9090    1.2415   -9.3188 C   0  0  0  0  0  0  0  0  0  0  0  0
   18.3979    2.0809   -8.6998 N   0  0  0  0  0  0  0  0  0  0  0  0
   20.8240    0.2943  -10.4942 C   0  0  0  0  0  0  0  0  0  0  0  0
   25.0864    0.0013  -11.5116 C   0  0  0  0  0  0  0  0  0  0  0  0
   26.2607    0.0687  -10.7395 C   0  0  0  0  0  0  0  0  0  0  0  0
   27.3578    0.6564  -11.5214 C   0  0  2  0  0  0  0  0  0  0  0  0
   27.6593    1.9362  -11.0688 O   0  0  0  0  0  0  0  0  0  0  0  0
   26.8489    0.7814  -12.9269 C   0  0  2  0  0  0  0  0  0  0  0  0
   27.4611   -0.0940  -13.8187 F   0  0  0  0  0  0  0  0  0  0  0  0
   27.1105    2.0616  -13.4324 F   0  0  0  0  0  0  0  0  0  0  0  0
   25.3650    0.4919  -12.8737 C   0  0  2  0  0  0  0  0  0  0  0  0
   24.7344    1.6573  -13.2191 F   0  0  0  0  0  0  0  0  0  0  0  0
  1  2  1  1
  2  3  2  0
  2  4  2  0
  2  5  1  6
  5  6  2  0
  6  7  1  0
  7  8  2  0
  8  9  1  0
  9 10  1  0
 10 11  2  0
 11 12  1  0
 12 13  1  0
 12 14  2  0
 14 15  1  0
 15 16  1  0
 16 17  3  0
 15 18  2  0
  8 19  1  0
 19 20  2  0
 20 21  1  0
 21 22  1  1
 21 23  1  0
 23 24  1  6
 23 25  1  0
 23 26  1  0
 26 27  1  1
 20  5  1  0
 18 10  1  0
 26 19  1  0
M  END
$$$$
