_rank16
     RDKit          3D

 27 29  0  0  0  0  0  0  0  0999 V2000
   28.8408   -2.0338   -9.2964 C   0  0  0  0  0  0  0  0  0  0  0  0
   27.7332   -0.8827   -8.5346 S   0  0  2  0  0  6  0  0  0  0  0  0
   28.5141    0.4157   -8.3595 O   0  0  0  0  0  0  0  0  0  0  0  0
   27.4461   -1.3465   -7.1293 O   0  0  0  0  0  0  0  0  0  0  0  0
   26.2895   -0.5759   -9.4268 C   0  0  0  0  0  0  0  0  0  0  0  0
   25.0712   -0.8509   -8.8603 C   0  0  0  0  0  0  0  0  0  0  0  0
   23.8748   -0.6454   -9.4785 C   0  0  0  0  0  0  0  0  0  0  0  0
   23.8586   -0.1283  -10.7631 C   0  0  0  0  0  0  0  0  0  0  0  0
   22.6357    0.0551  -11.3411 O   0  0  0  0  0  0  0  0  0  0  0  0
   21.3941   -0.3340  -10.9609 C   0  0  0  0  0  0  0  0  0  0  0  0
   20.5982    0.6606  -10.3640 C   0  0  0  0  0  0  0  0  0  0  0  0
   19.3291    0.3892   -9.9405 C   0  0  0  0  0  0  0  0  0  0  0  0
   18.5631    1.3677   -9.3565 F   0  0  0  0  0  0  0  0  0  0  0  0
   18.8195   -0.8765  -10.1003 C   0  0  0  0  0  0  0  0  0  0  0  0
   19.5752   -1.8920  -10.6877 C   0  0  0  0  0  0  0  0  0  0  0  0
   19.0592   -3.2066  -10.8529 C   0  0  0  0  0  0  0  0  0  0  0  0
   18.6312   -4.2754  -11.0060 N   0  0  0  0  0  0  0  0  0  0  0  0
   20.8437   -1.5624  -11.0941 C   0  0  0  0  0  0  0  0  0  0  0  0
   25.0643    0.1615  -11.3747 C   0  0  0  0  0  0  0  0  0  0  0  0
   26.2818   -0.0615  -10.7055 C   0  0  0  0  0  0  0  0  0  0  0  0
   27.4158    0.3186  -11.5597 C   0  0  2  0  0  0  0  0  0  0  0  0
   28.0208    1.4804  -11.0931 O   0  0  0  0  0  0  0  0  0  0  0  0
   26.8385    0.6202  -12.9110 C   0  0  2  0  0  0  0  0  0  0  0  0
   27.1761   -0.3189  -13.8808 F   0  0  0  0  0  0  0  0  0  0  0  0
   27.3304    1.8395  -13.3948 F   0  0  0  0  0  0  0  0  0  0  0  0
   25.3357    0.6502  -12.7389 C   0  0  2  0  0  0  0  0  0  0  0  0
   24.9469    1.9390  -12.9898 F   0  0  0  0  0  0  0  0  0  0  0  0
  1  2  1  1
  2  3  2  0
  2  4  2  0
  2  5  1  6
  5  6  2  0
  6  7  1  0
  7  8  2  0
  8  9  1  0
  9 10  1  0
 10 11  2  0
 11 12  1  0
 12 13  1  0
 12 14  2  0
 14 15  1  0
 15 16  1  0
 16 17  3  0
 15 18  2  0
  8 19  1  0
 19 20  2  0
 20 21  1  0
 21 22  1  1
 21 23  1  0
 23 24  1  6
 23 25  1  0
 23 26  1  0
 26 27  1  1
 20  5  1  0
 18 10  1  0
 26 19  1  0
M  END
$$$$
