_rank7
     RDKit          3D

 27 29  0  0  0  0  0  0  0  0999 V2000
   28.5089    1.0454   -8.0903 C   0  0  0  0  0  0  0  0  0  0  0  0
   27.8237   -0.5334   -8.5028 S   0  0  2  0  0  6  0  0  0  0  0  0
   27.5121   -1.2269   -7.1806 O   0  0  0  0  0  0  0  0  0  0  0  0
   28.9023   -1.3787   -9.1309 O   0  0  0  0  0  0  0  0  0  0  0  0
   26.3997   -0.4678   -9.4735 C   0  0  0  0  0  0  0  0  0  0  0  0
   25.2065   -0.9037   -8.9568 C   0  0  0  0  0  0  0  0  0  0  0  0
   24.0271   -0.8942   -9.6385 C   0  0  0  0  0  0  0  0  0  0  0  0
   24.0032   -0.4209  -10.9398 C   0  0  0  0  0  0  0  0  0  0  0  0
   22.7988   -0.4361  -11.5819 O   0  0  0  0  0  0  0  0  0  0  0  0
   21.5297   -0.5081  -11.1109 C   0  0  0  0  0  0  0  0  0  0  0  0
   20.8565   -1.7196  -11.3516 C   0  0  0  0  0  0  0  0  0  0  0  0
   19.5742   -1.9113  -10.9246 C   0  0  0  0  0  0  0  0  0  0  0  0
   18.9265   -3.0973  -11.1683 F   0  0  0  0  0  0  0  0  0  0  0  0
   18.9296   -0.9048  -10.2474 C   0  0  0  0  0  0  0  0  0  0  0  0
   19.5611    0.3122   -9.9875 C   0  0  0  0  0  0  0  0  0  0  0  0
   18.9012    1.3624   -9.2923 C   0  0  0  0  0  0  0  0  0  0  0  0
   18.3614    2.2308   -8.7412 N   0  0  0  0  0  0  0  0  0  0  0  0
   20.8492    0.4493  -10.4400 C   0  0  0  0  0  0  0  0  0  0  0  0
   25.1842    0.0265  -11.5027 C   0  0  0  0  0  0  0  0  0  0  0  0
   26.3842    0.0042  -10.7684 C   0  0  0  0  0  0  0  0  0  0  0  0
   27.4941    0.5238  -11.5800 C   0  0  2  0  0  0  0  0  0  0  0  0
   27.8975    1.7746  -11.1260 O   0  0  0  0  0  0  0  0  0  0  0  0
   26.9507    0.6992  -12.9672 C   0  0  2  0  0  0  0  0  0  0  0  0
   27.4724   -0.2062  -13.8861 F   0  0  0  0  0  0  0  0  0  0  0  0
   27.2842    1.9640  -13.4694 F   0  0  0  0  0  0  0  0  0  0  0  0
   25.4528    0.5120  -12.8686 C   0  0  2  0  0  0  0  0  0  0  0  0
   24.8938    1.7219  -13.1829 F   0  0  0  0  0  0  0  0  0  0  0  0
  1  2  1  1
  2  3  2  0
  2  4  2  0
  2  5  1  6
  5  6  2  0
  6  7  1  0
  7  8  2  0
  8  9  1  0
  9 10  1  0
 10 11  2  0
 11 12  1  0
 12 13  1  0
 12 14  2  0
 14 15  1  0
 15 16  1  0
 16 17  3  0
 15 18  2  0
  8 19  1  0
 19 20  2  0
 20 21  1  0
 21 22  1  1
 21 23  1  0
 23 24  1  6
 23 25  1  0
 23 26  1  0
 26 27  1  1
 20  5  1  0
 18 10  1  0
 26 19  1  0
M  END
$$$$
