_rank17
     RDKit          3D

 27 29  0  0  0  0  0  0  0  0999 V2000
   27.9411   -1.2340   -7.1203 C   0  0  0  0  0  0  0  0  0  0  0  0
   28.0889   -0.3240   -8.6310 S   0  0  2  0  0  6  0  0  0  0  0  0
   29.1986   -0.9966   -9.4326 O   0  0  0  0  0  0  0  0  0  0  0  0
   28.6251    1.0493   -8.3170 O   0  0  0  0  0  0  0  0  0  0  0  0
   26.6475   -0.2600   -9.5758 C   0  0  0  0  0  0  0  0  0  0  0  0
   25.4591   -0.6701   -9.0279 C   0  0  0  0  0  0  0  0  0  0  0  0
   24.2671   -0.6595   -9.6873 C   0  0  0  0  0  0  0  0  0  0  0  0
   24.2242   -0.2124  -10.9974 C   0  0  0  0  0  0  0  0  0  0  0  0
   23.0077   -0.2253  -11.6162 O   0  0  0  0  0  0  0  0  0  0  0  0
   21.7492   -0.3307  -11.1233 C   0  0  0  0  0  0  0  0  0  0  0  0
   21.1287   -1.5815  -11.2949 C   0  0  0  0  0  0  0  0  0  0  0  0
   19.8619   -1.8092  -10.8399 C   0  0  0  0  0  0  0  0  0  0  0  0
   19.2657   -3.0334  -11.0162 F   0  0  0  0  0  0  0  0  0  0  0  0
   19.1812   -0.8004  -10.2027 C   0  0  0  0  0  0  0  0  0  0  0  0
   19.7600    0.4549  -10.0114 C   0  0  0  0  0  0  0  0  0  0  0  0
   19.0622    1.5073   -9.3580 C   0  0  0  0  0  0  0  0  0  0  0  0
   18.4765    2.3550   -8.8219 N   0  0  0  0  0  0  0  0  0  0  0  0
   21.0347    0.6270  -10.4894 C   0  0  0  0  0  0  0  0  0  0  0  0
   25.3997    0.2084  -11.5915 C   0  0  0  0  0  0  0  0  0  0  0  0
   26.6132    0.1857  -10.8796 C   0  0  0  0  0  0  0  0  0  0  0  0
   27.7136    0.6744  -11.7226 C   0  0  2  0  0  0  0  0  0  0  0  0
   28.1411    1.9290  -11.3021 O   0  0  0  0  0  0  0  0  0  0  0  0
   27.1461    0.8286  -13.1026 C   0  0  2  0  0  0  0  0  0  0  0  0
   27.6389   -0.1019  -14.0123 F   0  0  0  0  0  0  0  0  0  0  0  0
   27.4855    2.0784  -13.6369 F   0  0  0  0  0  0  0  0  0  0  0  0
   25.6481    0.6625  -12.9720 C   0  0  2  0  0  0  0  0  0  0  0  0
   25.0982    1.8727  -13.3005 F   0  0  0  0  0  0  0  0  0  0  0  0
  1  2  1  1
  2  3  2  0
  2  4  2  0
  2  5  1  6
  5  6  2  0
  6  7  1  0
  7  8  2  0
  8  9  1  0
  9 10  1  0
 10 11  2  0
 11 12  1  0
 12 13  1  0
 12 14  2  0
 14 15  1  0
 15 16  1  0
 16 17  3  0
 15 18  2  0
  8 19  1  0
 19 20  2  0
 20 21  1  0
 21 22  1  1
 21 23  1  0
 23 24  1  6
 23 25  1  0
 23 26  1  0
 26 27  1  1
 20  5  1  0
 18 10  1  0
 26 19  1  0
M  END
$$$$
