_rank14
     RDKit          3D

 27 29  0  0  0  0  0  0  0  0999 V2000
   28.7870   -1.9628   -8.4307 C   0  0  0  0  0  0  0  0  0  0  0  0
   27.9100   -0.4309   -8.3025 S   0  0  2  0  0  6  0  0  0  0  0  0
   28.8926    0.6634   -8.7062 O   0  0  0  0  0  0  0  0  0  0  0  0
   27.6174   -0.1622   -6.8484 O   0  0  0  0  0  0  0  0  0  0  0  0
   26.4937   -0.3292   -9.2814 C   0  0  0  0  0  0  0  0  0  0  0  0
   25.2688   -0.6110   -8.7328 C   0  0  0  0  0  0  0  0  0  0  0  0
   24.0924   -0.5602   -9.4177 C   0  0  0  0  0  0  0  0  0  0  0  0
   24.1053   -0.2059  -10.7564 C   0  0  0  0  0  0  0  0  0  0  0  0
   22.9019   -0.1738  -11.3998 O   0  0  0  0  0  0  0  0  0  0  0  0
   21.6370   -0.3645  -10.9510 C   0  0  0  0  0  0  0  0  0  0  0  0
   21.1205   -1.6629  -11.1133 C   0  0  0  0  0  0  0  0  0  0  0  0
   19.8581   -1.9771  -10.6995 C   0  0  0  0  0  0  0  0  0  0  0  0
   19.3639   -3.2472  -10.8664 F   0  0  0  0  0  0  0  0  0  0  0  0
   19.0784   -1.0095  -10.1138 C   0  0  0  0  0  0  0  0  0  0  0  0
   19.5523    0.2906   -9.9335 C   0  0  0  0  0  0  0  0  0  0  0  0
   18.7518    1.3007   -9.3333 C   0  0  0  0  0  0  0  0  0  0  0  0
   18.1079    2.1398   -8.8530 N   0  0  0  0  0  0  0  0  0  0  0  0
   20.8277    0.5495  -10.3685 C   0  0  0  0  0  0  0  0  0  0  0  0
   25.3188    0.0843  -11.3522 C   0  0  0  0  0  0  0  0  0  0  0  0
   26.5149    0.0237  -10.6136 C   0  0  0  0  0  0  0  0  0  0  0  0
   27.6630    0.3691  -11.4639 C   0  0  2  0  0  0  0  0  0  0  0  0
   28.1757    1.6158  -11.1227 O   0  0  0  0  0  0  0  0  0  0  0  0
   27.1322    0.4655  -12.8637 C   0  0  2  0  0  0  0  0  0  0  0  0
   27.5696   -0.5612  -13.6949 F   0  0  0  0  0  0  0  0  0  0  0  0
   27.5730    1.6458  -13.4763 F   0  0  0  0  0  0  0  0  0  0  0  0
   25.6239    0.4193  -12.7551 C   0  0  2  0  0  0  0  0  0  0  0  0
   25.1715    1.6400  -13.1797 F   0  0  0  0  0  0  0  0  0  0  0  0
  1  2  1  1
  2  3  2  0
  2  4  2  0
  2  5  1  6
  5  6  2  0
  6  7  1  0
  7  8  2  0
  8  9  1  0
  9 10  1  0
 10 11  2  0
 11 12  1  0
 12 13  1  0
 12 14  2  0
 14 15  1  0
 15 16  1  0
 16 17  3  0
 15 18  2  0
  8 19  1  0
 19 20  2  0
 20 21  1  0
 21 22  1  1
 21 23  1  0
 23 24  1  6
 23 25  1  0
 23 26  1  0
 26 27  1  1
 20  5  1  0
 18 10  1  0
 26 19  1  0
M  END
$$$$
