_rank12
     RDKit          3D

 15 15  0  0  0  0  0  0  0  0999 V2000
   20.2684   -0.0277  -10.0805 C   0  0  0  0  0  0  0  0  0  0  0  0
   21.2797   -1.0024  -10.6295 C   0  0  1  0  0  0  0  0  0  0  0  0
   20.9008   -2.3938  -10.2143 C   0  0  0  0  0  0  0  0  0  0  0  0
   21.2291   -0.9538  -12.0825 N   0  0  0  0  0  0  0  0  0  0  0  0
   22.6565   -0.6039  -10.2066 C   0  0  0  0  0  0  0  0  0  0  0  0
   23.6505   -1.0067  -11.1296 O   0  0  0  0  0  0  0  0  0  0  0  0
   24.9702   -0.6569  -10.8997 C   0  0  0  0  0  0  0  0  0  0  0  0
   25.8994   -0.5615  -11.9132 C   0  0  0  0  0  0  0  0  0  0  0  0
   27.2189   -0.2101  -11.6701 C   0  0  0  0  0  0  0  0  0  0  0  0
   28.1282   -0.1184  -12.6748 F   0  0  0  0  0  0  0  0  0  0  0  0
   27.6407    0.0574  -10.3837 C   0  0  0  0  0  0  0  0  0  0  0  0
   26.7160   -0.0340   -9.3477 C   0  0  0  0  0  0  0  0  0  0  0  0
   27.1584    0.2457   -8.0053 C   0  0  0  0  0  0  0  0  0  0  0  0
   27.5327    0.4702   -6.9325 N   0  0  0  0  0  0  0  0  0  0  0  0
   25.4118   -0.3857   -9.6215 C   0  0  0  0  0  0  0  0  0  0  0  0
  1  2  1  1
  3  2  1  6
  2  4  1  6
  2  5  1  0
  5  6  1  1
  6  7  1  0
  7  8  2  0
  8  9  1  0
  9 10  1  0
  9 11  2  0
 11 12  1  0
 12 13  1  0
 13 14  3  0
 12 15  2  0
 15  7  1  0
M  END
$$$$
