_rank8
     RDKit          3D

 15 15  0  0  0  0  0  0  0  0999 V2000
   21.6054    0.4696  -11.2803 C   0  0  0  0  0  0  0  0  0  0  0  0
   21.1739   -0.9370  -10.9500 C   0  0  1  0  0  0  0  0  0  0  0  0
   20.0317   -0.8880   -9.9779 C   0  0  0  0  0  0  0  0  0  0  0  0
   20.6833   -1.5689  -12.1650 N   0  0  0  0  0  0  0  0  0  0  0  0
   22.3431   -1.7299  -10.4626 C   0  0  0  0  0  0  0  0  0  0  0  0
   23.1576   -1.0054   -9.5604 O   0  0  0  0  0  0  0  0  0  0  0  0
   24.4554   -0.6887   -9.9238 C   0  0  0  0  0  0  0  0  0  0  0  0
   24.8780   -0.6842  -11.2357 C   0  0  0  0  0  0  0  0  0  0  0  0
   26.1812   -0.3651  -11.5872 C   0  0  0  0  0  0  0  0  0  0  0  0
   26.5893   -0.3630  -12.8826 F   0  0  0  0  0  0  0  0  0  0  0  0
   27.1030   -0.0384  -10.6136 C   0  0  0  0  0  0  0  0  0  0  0  0
   26.6939   -0.0379   -9.2834 C   0  0  0  0  0  0  0  0  0  0  0  0
   27.6579    0.3035   -8.2683 C   0  0  0  0  0  0  0  0  0  0  0  0
   28.4276    0.5967   -7.4541 N   0  0  0  0  0  0  0  0  0  0  0  0
   25.3919   -0.3595   -8.9661 C   0  0  0  0  0  0  0  0  0  0  0  0
  1  2  1  1
  3  2  1  6
  2  4  1  6
  2  5  1  0
  5  6  1  1
  6  7  1  0
  7  8  2  0
  8  9  1  0
  9 10  1  0
  9 11  2  0
 11 12  1  0
 12 13  1  0
 13 14  3  0
 12 15  2  0
 15  7  1  0
M  END
$$$$
