_rank16
     RDKit          3D

 15 15  0  0  0  0  0  0  0  0999 V2000
   26.7205    1.5083  -10.6384 C   0  0  0  0  0  0  0  0  0  0  0  0
   26.5214    0.4721  -11.7158 C   0  0  1  0  0  0  0  0  0  0  0  0
   27.2443    0.9051  -12.9574 C   0  0  0  0  0  0  0  0  0  0  0  0
   27.1242   -0.7764  -11.2752 N   0  0  0  0  0  0  0  0  0  0  0  0
   25.0624    0.2261  -11.9259 C   0  0  0  0  0  0  0  0  0  0  0  0
   24.4223   -0.2865  -10.7726 O   0  0  0  0  0  0  0  0  0  0  0  0
   23.2331   -0.9818  -10.9104 C   0  0  0  0  0  0  0  0  0  0  0  0
   22.9092   -1.6776  -12.0552 C   0  0  0  0  0  0  0  0  0  0  0  0
   21.7144   -2.3705  -12.1812 C   0  0  0  0  0  0  0  0  0  0  0  0
   21.4031   -3.0537  -13.3130 F   0  0  0  0  0  0  0  0  0  0  0  0
   20.8043   -2.3800  -11.1439 C   0  0  0  0  0  0  0  0  0  0  0  0
   21.1146   -1.6827   -9.9801 C   0  0  0  0  0  0  0  0  0  0  0  0
   20.1631   -1.6939   -8.8982 C   0  0  0  0  0  0  0  0  0  0  0  0
   19.3836   -1.7024   -8.0416 N   0  0  0  0  0  0  0  0  0  0  0  0
   22.3103   -1.0037   -9.8855 C   0  0  0  0  0  0  0  0  0  0  0  0
  1  2  1  1
  3  2  1  6
  2  4  1  1
  2  5  1  0
  5  6  1  1
  6  7  1  0
  7  8  2  0
  8  9  1  0
  9 10  1  0
  9 11  2  0
 11 12  1  0
 12 13  1  0
 13 14  3  0
 12 15  2  0
 15  7  1  0
M  END
$$$$
