_rank10
     RDKit          3D

 15 15  0  0  0  0  0  0  0  0999 V2000
   27.1784    0.4145  -10.0858 C   0  0  0  0  0  0  0  0  0  0  0  0
   26.3054   -0.0734  -11.2145 C   0  0  1  0  0  0  0  0  0  0  0  0
   26.2138    0.9941  -12.2652 C   0  0  0  0  0  0  0  0  0  0  0  0
   26.9411   -1.2306  -11.8253 N   0  0  0  0  0  0  0  0  0  0  0  0
   24.9779   -0.5084  -10.6835 C   0  0  0  0  0  0  0  0  0  0  0  0
   23.9457   -0.4137  -11.6468 O   0  0  0  0  0  0  0  0  0  0  0  0
   22.6592   -0.7900  -11.3004 C   0  0  0  0  0  0  0  0  0  0  0  0
   21.9572   -1.7542  -11.9912 C   0  0  0  0  0  0  0  0  0  0  0  0
   20.6686   -2.1226  -11.6343 C   0  0  0  0  0  0  0  0  0  0  0  0
   19.9839   -3.0737  -12.3207 F   0  0  0  0  0  0  0  0  0  0  0  0
   20.0470   -1.5214  -10.5589 C   0  0  0  0  0  0  0  0  0  0  0  0
   20.7408   -0.5455   -9.8496 C   0  0  0  0  0  0  0  0  0  0  0  0
   20.0900    0.0810   -8.7271 C   0  0  0  0  0  0  0  0  0  0  0  0
   19.5552    0.5943   -7.8372 N   0  0  0  0  0  0  0  0  0  0  0  0
   22.0203   -0.2013  -10.2290 C   0  0  0  0  0  0  0  0  0  0  0  0
  1  2  1  1
  3  2  1  6
  2  4  1  6
  2  5  1  0
  5  6  1  1
  6  7  1  0
  7  8  2  0
  8  9  1  0
  9 10  1  0
  9 11  2  0
 11 12  1  0
 12 13  1  0
 13 14  3  0
 12 15  2  0
 15  7  1  0
M  END
$$$$
