_rank20
     RDKit          3D

 15 15  0  0  0  0  0  0  0  0999 V2000
   27.7532    2.7946  -12.6674 C   0  0  0  0  0  0  0  0  0  0  0  0
   27.0837    1.7835  -13.5637 C   0  0  1  0  0  0  0  0  0  0  0  0
   25.9577    2.4464  -14.3017 C   0  0  0  0  0  0  0  0  0  0  0  0
   28.0477    1.3331  -14.5558 N   0  0  0  0  0  0  0  0  0  0  0  0
   26.6595    0.5934  -12.7654 C   0  0  0  0  0  0  0  0  0  0  0  0
   25.7973    0.9314  -11.6956 O   0  0  0  0  0  0  0  0  0  0  0  0
   25.3786   -0.0595  -10.8239 C   0  0  0  0  0  0  0  0  0  0  0  0
   26.2034   -0.5943   -9.8578 C   0  0  0  0  0  0  0  0  0  0  0  0
   25.7722   -1.5868   -8.9903 C   0  0  0  0  0  0  0  0  0  0  0  0
   26.5916   -2.1083   -8.0410 F   0  0  0  0  0  0  0  0  0  0  0  0
   24.4830   -2.0716   -9.0753 C   0  0  0  0  0  0  0  0  0  0  0  0
   23.6360   -1.5432  -10.0451 C   0  0  0  0  0  0  0  0  0  0  0  0
   22.2903   -2.0507  -10.1322 C   0  0  0  0  0  0  0  0  0  0  0  0
   21.2038   -2.4480  -10.1864 N   0  0  0  0  0  0  0  0  0  0  0  0
   24.0942   -0.5575  -10.8925 C   0  0  0  0  0  0  0  0  0  0  0  0
  1  2  1  1
  3  2  1  6
  2  4  1  6
  2  5  1  0
  5  6  1  1
  6  7  1  0
  7  8  2  0
  8  9  1  0
  9 10  1  0
  9 11  2  0
 11 12  1  0
 12 13  1  0
 13 14  3  0
 12 15  2  0
 15  7  1  0
M  END
$$$$
