_rank19
     RDKit          3D

 15 15  0  0  0  0  0  0  0  0999 V2000
   27.3891   -0.3074  -11.4850 C   0  0  0  0  0  0  0  0  0  0  0  0
   26.3958    0.6692  -10.9073 C   0  0  1  0  0  0  0  0  0  0  0  0
   27.1006    1.5795   -9.9447 C   0  0  0  0  0  0  0  0  0  0  0  0
   25.8771    1.4957  -11.9862 N   0  0  0  0  0  0  0  0  0  0  0  0
   25.2452   -0.0684  -10.3028 C   0  0  0  0  0  0  0  0  0  0  0  0
   24.7246   -1.0670  -11.1596 O   0  0  0  0  0  0  0  0  0  0  0  0
   23.3532   -1.2320  -11.2529 C   0  0  0  0  0  0  0  0  0  0  0  0
   22.6331   -0.8426  -12.3617 C   0  0  0  0  0  0  0  0  0  0  0  0
   21.2591   -1.0133  -12.4432 C   0  0  0  0  0  0  0  0  0  0  0  0
   20.5572   -0.6266  -13.5397 F   0  0  0  0  0  0  0  0  0  0  0  0
   20.5673   -1.5878  -11.3965 C   0  0  0  0  0  0  0  0  0  0  0  0
   21.2782   -1.9872  -10.2686 C   0  0  0  0  0  0  0  0  0  0  0  0
   20.5540   -2.5869   -9.1768 C   0  0  0  0  0  0  0  0  0  0  0  0
   19.9773   -3.0539   -8.2877 N   0  0  0  0  0  0  0  0  0  0  0  0
   22.6432   -1.8040  -10.2178 C   0  0  0  0  0  0  0  0  0  0  0  0
  1  2  1  1
  3  2  1  6
  2  4  1  6
  2  5  1  0
  5  6  1  1
  6  7  1  0
  7  8  2  0
  8  9  1  0
  9 10  1  0
  9 11  2  0
 11 12  1  0
 12 13  1  0
 13 14  3  0
 12 15  2  0
 15  7  1  0
M  END
$$$$
