_rank6
     RDKit          3D

 15 15  0  0  0  0  0  0  0  0999 V2000
   21.2900   -2.2255  -11.6265 C   0  0  0  0  0  0  0  0  0  0  0  0
   20.9881   -0.9909  -10.8148 C   0  0  1  0  0  0  0  0  0  0  0  0
   19.9127   -0.1999  -11.5001 C   0  0  0  0  0  0  0  0  0  0  0  0
   20.4666   -1.4029   -9.5208 N   0  0  0  0  0  0  0  0  0  0  0  0
   22.2433   -0.2158  -10.5760 C   0  0  0  0  0  0  0  0  0  0  0  0
   23.2459   -0.9819   -9.9354 O   0  0  0  0  0  0  0  0  0  0  0  0
   24.5777   -0.6750  -10.1563 C   0  0  0  0  0  0  0  0  0  0  0  0
   25.1337   -0.6501  -11.4172 C   0  0  0  0  0  0  0  0  0  0  0  0
   26.4697   -0.3412  -11.6257 C   0  0  0  0  0  0  0  0  0  0  0  0
   27.0095   -0.3189  -12.8717 F   0  0  0  0  0  0  0  0  0  0  0  0
   27.2894   -0.0459  -10.5556 C   0  0  0  0  0  0  0  0  0  0  0  0
   26.7450   -0.0662   -9.2748 C   0  0  0  0  0  0  0  0  0  0  0  0
   27.6026    0.2424   -8.1589 C   0  0  0  0  0  0  0  0  0  0  0  0
   28.2767    0.4877   -7.2497 N   0  0  0  0  0  0  0  0  0  0  0  0
   25.4137   -0.3770   -9.1004 C   0  0  0  0  0  0  0  0  0  0  0  0
  1  2  1  1
  3  2  1  6
  2  4  1  1
  2  5  1  0
  5  6  1  1
  6  7  1  0
  7  8  2  0
  8  9  1  0
  9 10  1  0
  9 11  2  0
 11 12  1  0
 12 13  1  0
 13 14  3  0
 12 15  2  0
 15  7  1  0
M  END
$$$$
