_rank17
     RDKit          3D

 25 28  0  0  0  0  0  0  0  0999 V2000
   22.2029   -0.7599   -7.2485 F   0  0  0  0  0  0  0  0  0  0  0  0
   21.2345   -0.1352   -7.9717 C   0  0  0  0  0  0  0  0  0  0  0  0
   20.1522    0.4592   -7.3231 C   0  0  0  0  0  0  0  0  0  0  0  0
   19.1840    1.0925   -8.0743 C   0  0  0  0  0  0  0  0  0  0  0  0
   19.2749    1.1435   -9.4482 C   0  0  0  0  0  0  0  0  0  0  0  0
   17.9136    2.0304  -10.4548 Br  0  0  0  0  0  0  0  0  0  0  0  0
   20.3564    0.5465  -10.0569 C   0  0  0  0  0  0  0  0  0  0  0  0
   20.4875    0.6027  -11.8148 Cl  0  0  0  0  0  0  0  0  0  0  0  0
   21.3661   -0.1089   -9.3425 C   0  0  0  0  0  0  0  0  0  0  0  0
   22.4919   -0.7312  -10.0433 C   0  0  2  0  0  0  0  0  0  0  0  0
   23.4483    0.2987  -10.6024 C   0  0  0  0  0  0  0  0  0  0  0  0
   24.6471   -0.3318  -11.2211 C   0  0  1  0  0  0  0  0  0  0  0  0
   25.6811   -0.7839  -10.2683 C   0  0  0  0  0  0  0  0  0  0  0  0
   25.6644   -1.9789   -9.5895 C   0  0  0  0  0  0  0  0  0  0  0  0
   26.6649   -2.3406   -8.7103 C   0  0  0  0  0  0  0  0  0  0  0  0
   27.7463   -1.4980   -8.4724 C   0  0  0  0  0  0  0  0  0  0  0  0
   27.7691   -0.2986   -9.1496 C   0  0  0  0  0  0  0  0  0  0  0  0
   29.2679    0.8550   -8.8118 Br  0  0  0  0  0  0  0  0  0  0  0  0
   26.7720    0.0436  -10.0152 C   0  0  0  0  0  0  0  0  0  0  0  0
   24.2727   -1.4505  -12.0489 N   0  0  0  0  0  0  0  0  0  0  0  0
   22.9709   -1.9984  -12.0269 C   0  0  0  0  0  0  0  0  0  0  0  0
   22.3511   -2.8920  -12.8665 N   0  0  0  0  0  0  0  0  0  0  0  0
   21.1401   -3.0606  -12.3809 N   0  0  0  0  0  0  0  0  0  0  0  0
   20.9884   -2.3267  -11.3027 N   0  0  0  0  0  0  0  0  0  0  0  0
   22.1075   -1.6661  -11.0712 N   0  0  0  0  0  0  0  0  0  0  0  0
  1  2  1  0
  2  3  2  0
  3  4  1  0
  4  5  2  0
  5  6  1  0
  5  7  1  0
  7  8  1  0
  7  9  2  0
 10  9  1  6
 11 10  1  1
 11 12  1  0
 12 13  1  1
 13 14  2  0
 14 15  1  0
 15 16  2  0
 16 17  1  0
 17 18  1  0
 17 19  2  0
 12 20  1  0
 20 21  1  0
 21 22  2  0
 22 23  1  0
 23 24  2  0
 24 25  1  0
  9  2  1  0
 25 10  1  0
 19 13  1  0
 25 21  1  0
M  END
$$$$
