_rank18
     RDKit          3D

 25 28  0  0  0  0  0  0  0  0999 V2000
   26.0371    1.1538   -7.6990 F   0  0  0  0  0  0  0  0  0  0  0  0
   26.5456    0.7365   -8.8900 C   0  0  0  0  0  0  0  0  0  0  0  0
   27.8923    0.9458   -9.1864 C   0  0  0  0  0  0  0  0  0  0  0  0
   28.3894    0.5099  -10.3970 C   0  0  0  0  0  0  0  0  0  0  0  0
   27.5751   -0.1252  -11.3092 C   0  0  0  0  0  0  0  0  0  0  0  0
   28.3005   -0.7150  -12.9762 Br  0  0  0  0  0  0  0  0  0  0  0  0
   26.2503   -0.3158  -10.9850 C   0  0  0  0  0  0  0  0  0  0  0  0
   25.1946   -1.1271  -12.1417 Cl  0  0  0  0  0  0  0  0  0  0  0  0
   25.6951    0.1065   -9.7714 C   0  0  0  0  0  0  0  0  0  0  0  0
   24.2769   -0.1184   -9.4818 C   0  0  2  0  0  0  0  0  0  0  0  0
   23.4165    1.0389   -9.9383 C   0  0  0  0  0  0  0  0  0  0  0  0
   21.9658    0.7662   -9.7426 C   0  0  1  0  0  0  0  0  0  0  0  0
   21.3472   -0.1043  -10.7628 C   0  0  0  0  0  0  0  0  0  0  0  0
   21.8799   -0.3764  -12.0002 C   0  0  0  0  0  0  0  0  0  0  0  0
   21.2478   -1.2004  -12.9093 C   0  0  0  0  0  0  0  0  0  0  0  0
   20.0283   -1.7974  -12.6052 C   0  0  0  0  0  0  0  0  0  0  0  0
   19.4888   -1.5288  -11.3665 C   0  0  0  0  0  0  0  0  0  0  0  0
   17.8050   -2.3597  -10.9598 Br  0  0  0  0  0  0  0  0  0  0  0  0
   20.1267   -0.7119  -10.4796 C   0  0  0  0  0  0  0  0  0  0  0  0
   21.7194    0.1899   -8.4448 N   0  0  0  0  0  0  0  0  0  0  0  0
   22.7661   -0.2811   -7.6214 C   0  0  0  0  0  0  0  0  0  0  0  0
   22.7799   -0.6508   -6.2983 N   0  0  0  0  0  0  0  0  0  0  0  0
   24.0176   -1.0141   -6.0396 N   0  0  0  0  0  0  0  0  0  0  0  0
   24.7520   -0.8877   -7.1208 N   0  0  0  0  0  0  0  0  0  0  0  0
   23.9956   -0.4370   -8.1042 N   0  0  0  0  0  0  0  0  0  0  0  0
  1  2  1  0
  2  3  2  0
  3  4  1  0
  4  5  2  0
  5  6  1  0
  5  7  1  0
  7  8  1  0
  7  9  2  0
 10  9  1  1
 11 10  1  1
 11 12  1  0
 12 13  1  6
 13 14  2  0
 14 15  1  0
 15 16  2  0
 16 17  1  0
 17 18  1  0
 17 19  2  0
 12 20  1  0
 20 21  1  0
 21 22  2  0
 22 23  1  0
 23 24  2  0
 24 25  1  0
  9  2  1  0
 25 10  1  0
 19 13  1  0
 25 21  1  0
M  END
$$$$
