_rank8
     RDKit          3D

 25 28  0  0  0  0  0  0  0  0999 V2000
   24.1499    1.4698   -7.8703 F   0  0  0  0  0  0  0  0  0  0  0  0
   25.2973    0.7752   -8.0985 C   0  0  0  0  0  0  0  0  0  0  0  0
   26.3113    0.7674   -7.1410 C   0  0  0  0  0  0  0  0  0  0  0  0
   27.4644    0.0522   -7.3893 C   0  0  0  0  0  0  0  0  0  0  0  0
   27.6230   -0.6490   -8.5647 C   0  0  0  0  0  0  0  0  0  0  0  0
   29.2352   -1.6284   -8.8726 Br  0  0  0  0  0  0  0  0  0  0  0  0
   26.6025   -0.6202   -9.4889 C   0  0  0  0  0  0  0  0  0  0  0  0
   26.7899   -1.5124  -10.9986 Cl  0  0  0  0  0  0  0  0  0  0  0  0
   25.4126    0.0891   -9.2873 C   0  0  0  0  0  0  0  0  0  0  0  0
   24.3620    0.0886  -10.3080 C   0  0  2  0  0  0  0  0  0  0  0  0
   23.6362   -1.2370  -10.3710 C   0  0  0  0  0  0  0  0  0  0  0  0
   22.4990   -1.2047  -11.3319 C   0  0  1  0  0  0  0  0  0  0  0  0
   21.2731   -0.5500  -10.8322 C   0  0  0  0  0  0  0  0  0  0  0  0
   20.4032    0.1909  -11.5961 C   0  0  0  0  0  0  0  0  0  0  0  0
   19.2728    0.7780  -11.0648 C   0  0  0  0  0  0  0  0  0  0  0  0
   18.9638    0.6414   -9.7151 C   0  0  0  0  0  0  0  0  0  0  0  0
   19.8315   -0.1000   -8.9437 C   0  0  0  0  0  0  0  0  0  0  0  0
   19.3927   -0.2805   -7.0820 Br  0  0  0  0  0  0  0  0  0  0  0  0
   20.9446   -0.6736   -9.4848 C   0  0  0  0  0  0  0  0  0  0  0  0
   22.8836   -0.5665  -12.5655 N   0  0  0  0  0  0  0  0  0  0  0  0
   24.0933    0.1514  -12.6942 C   0  0  0  0  0  0  0  0  0  0  0  0
   24.7450    0.6346  -13.8029 N   0  0  0  0  0  0  0  0  0  0  0  0
   25.8284    1.2295  -13.3520 N   0  0  0  0  0  0  0  0  0  0  0  0
   25.8730    1.1368  -12.0430 N   0  0  0  0  0  0  0  0  0  0  0  0
   24.8111    0.4752  -11.6223 N   0  0  0  0  0  0  0  0  0  0  0  0
  1  2  1  0
  2  3  2  0
  3  4  1  0
  4  5  2  0
  5  6  1  0
  5  7  1  0
  7  8  1  0
  7  9  2  0
 10  9  1  1
 11 10  1  1
 11 12  1  0
 12 13  1  1
 13 14  2  0
 14 15  1  0
 15 16  2  0
 16 17  1  0
 17 18  1  0
 17 19  2  0
 12 20  1  0
 20 21  1  0
 21 22  2  0
 22 23  1  0
 23 24  2  0
 24 25  1  0
  9  2  1  0
 25 10  1  0
 19 13  1  0
 25 21  1  0
M  END
$$$$
