_rank15
     RDKit          3D

 25 28  0  0  0  0  0  0  0  0999 V2000
   20.6879   -0.4897  -13.0793 F   0  0  0  0  0  0  0  0  0  0  0  0
   20.3319   -0.0605  -11.8384 C   0  0  0  0  0  0  0  0  0  0  0  0
   19.0648    0.4813  -11.6234 C   0  0  0  0  0  0  0  0  0  0  0  0
   18.7215    0.9053  -10.3565 C   0  0  0  0  0  0  0  0  0  0  0  0
   19.6109    0.7997   -9.3095 C   0  0  0  0  0  0  0  0  0  0  0  0
   19.0987    1.3981   -7.5680 Br  0  0  0  0  0  0  0  0  0  0  0  0
   20.8538    0.2602   -9.5561 C   0  0  0  0  0  0  0  0  0  0  0  0
   22.0039    0.1181   -8.2267 Cl  0  0  0  0  0  0  0  0  0  0  0  0
   21.2528   -0.1851  -10.8218 C   0  0  0  0  0  0  0  0  0  0  0  0
   22.5902   -0.7463  -11.0274 C   0  0  2  0  0  0  0  0  0  0  0  0
   23.5744    0.2990  -11.5035 C   0  0  0  0  0  0  0  0  0  0  0  0
   24.9567   -0.2445  -11.6100 C   0  0  1  0  0  0  0  0  0  0  0  0
   25.6869   -0.3586  -10.3313 C   0  0  0  0  0  0  0  0  0  0  0  0
   25.1886   -0.9251   -9.1825 C   0  0  0  0  0  0  0  0  0  0  0  0
   25.9257   -0.9992   -8.0180 C   0  0  0  0  0  0  0  0  0  0  0  0
   27.2216   -0.4960   -7.9594 C   0  0  0  0  0  0  0  0  0  0  0  0
   27.7272    0.0733   -9.1074 C   0  0  0  0  0  0  0  0  0  0  0  0
   29.5175    0.7638   -9.0124 Br  0  0  0  0  0  0  0  0  0  0  0  0
   26.9851    0.1384  -10.2501 C   0  0  0  0  0  0  0  0  0  0  0  0
   24.9556   -1.5364  -12.2486 N   0  0  0  0  0  0  0  0  0  0  0  0
   23.7644   -2.2608  -12.4757 C   0  0  0  0  0  0  0  0  0  0  0  0
   23.5140   -3.3728  -13.2426 N   0  0  0  0  0  0  0  0  0  0  0  0
   22.2329   -3.6320  -13.0921 N   0  0  0  0  0  0  0  0  0  0  0  0
   21.6937   -2.7485  -12.2840 N   0  0  0  0  0  0  0  0  0  0  0  0
   22.6242   -1.8967  -11.8956 N   0  0  0  0  0  0  0  0  0  0  0  0
  1  2  1  0
  2  3  2  0
  3  4  1  0
  4  5  2  0
  5  6  1  0
  5  7  1  0
  7  8  1  0
  7  9  2  0
 10  9  1  6
 11 10  1  1
 11 12  1  0
 12 13  1  1
 13 14  2  0
 14 15  1  0
 15 16  2  0
 16 17  1  0
 17 18  1  0
 17 19  2  0
 12 20  1  0
 20 21  1  0
 21 22  2  0
 22 23  1  0
 23 24  2  0
 24 25  1  0
  9  2  1  0
 25 10  1  0
 19 13  1  0
 25 21  1  0
M  END
$$$$
