_rank12
     RDKit          3D

 25 28  0  0  0  0  0  0  0  0999 V2000
   25.0097    0.8146  -13.1097 F   0  0  0  0  0  0  0  0  0  0  0  0
   25.6670    0.5776  -11.9424 C   0  0  0  0  0  0  0  0  0  0  0  0
   26.9742    1.0331  -11.7719 C   0  0  0  0  0  0  0  0  0  0  0  0
   27.6210    0.7874  -10.5786 C   0  0  0  0  0  0  0  0  0  0  0  0
   26.9934    0.1019   -9.5614 C   0  0  0  0  0  0  0  0  0  0  0  0
   27.9224   -0.2192   -7.9221 Br  0  0  0  0  0  0  0  0  0  0  0  0
   25.7027   -0.3340   -9.7626 C   0  0  0  0  0  0  0  0  0  0  0  0
   24.8853   -1.2131   -8.4705 Cl  0  0  0  0  0  0  0  0  0  0  0  0
   25.0010   -0.1117  -10.9533 C   0  0  0  0  0  0  0  0  0  0  0  0
   23.6304   -0.6031  -11.1140 C   0  0  2  0  0  0  0  0  0  0  0  0
   23.0724   -1.1539   -9.8204 C   0  0  0  0  0  0  0  0  0  0  0  0
   21.6446   -1.5546   -9.9553 C   0  0  1  0  0  0  0  0  0  0  0  0
   20.6732   -0.4431   -9.9083 C   0  0  0  0  0  0  0  0  0  0  0  0
   19.8691   -0.0494  -10.9511 C   0  0  0  0  0  0  0  0  0  0  0  0
   18.9808    1.0012  -10.8405 C   0  0  0  0  0  0  0  0  0  0  0  0
   18.8620    1.7142   -9.6516 C   0  0  0  0  0  0  0  0  0  0  0  0
   19.6651    1.3247   -8.6023 C   0  0  0  0  0  0  0  0  0  0  0  0
   19.4906    2.3177   -6.9669 Br  0  0  0  0  0  0  0  0  0  0  0  0
   20.5379    0.2840   -8.7285 C   0  0  0  0  0  0  0  0  0  0  0  0
   21.4289   -2.2944  -11.1731 N   0  0  0  0  0  0  0  0  0  0  0  0
   22.4059   -2.3670  -12.1907 C   0  0  0  0  0  0  0  0  0  0  0  0
   22.4986   -3.1718  -13.3003 N   0  0  0  0  0  0  0  0  0  0  0  0
   23.6094   -2.8171  -13.9096 N   0  0  0  0  0  0  0  0  0  0  0  0
   24.1934   -1.8504  -13.2398 N   0  0  0  0  0  0  0  0  0  0  0  0
   23.4644   -1.5616  -12.1780 N   0  0  0  0  0  0  0  0  0  0  0  0
  1  2  1  0
  2  3  2  0
  3  4  1  0
  4  5  2  0
  5  6  1  0
  5  7  1  0
  7  8  1  0
  7  9  2  0
 10  9  1  1
 11 10  1  1
 11 12  1  0
 12 13  1  6
 13 14  2  0
 14 15  1  0
 15 16  2  0
 16 17  1  0
 17 18  1  0
 17 19  2  0
 12 20  1  0
 20 21  1  0
 21 22  2  0
 22 23  1  0
 23 24  2  0
 24 25  1  0
  9  2  1  0
 25 10  1  0
 19 13  1  0
 25 21  1  0
M  END
$$$$
