_rank1
     RDKit          3D

 25 28  0  0  0  0  0  0  0  0999 V2000
   23.8460    0.2514   -7.5841 F   0  0  0  0  0  0  0  0  0  0  0  0
   25.1117   -0.0836   -7.9540 C   0  0  0  0  0  0  0  0  0  0  0  0
   26.1319   -0.1153   -7.0035 C   0  0  0  0  0  0  0  0  0  0  0  0
   27.4071   -0.4631   -7.3980 C   0  0  0  0  0  0  0  0  0  0  0  0
   27.6808   -0.7770   -8.7115 C   0  0  0  0  0  0  0  0  0  0  0  0
   29.4604   -1.2542   -9.2198 Br  0  0  0  0  0  0  0  0  0  0  0  0
   26.6505   -0.7357   -9.6244 C   0  0  0  0  0  0  0  0  0  0  0  0
   26.9843   -1.1346  -11.3096 Cl  0  0  0  0  0  0  0  0  0  0  0  0
   25.3394   -0.3895   -9.2775 C   0  0  0  0  0  0  0  0  0  0  0  0
   24.2834   -0.3571  -10.2922 C   0  0  2  0  0  0  0  0  0  0  0  0
   23.8918   -1.7464  -10.7445 C   0  0  0  0  0  0  0  0  0  0  0  0
   22.7461   -1.7206  -11.6954 C   0  0  1  0  0  0  0  0  0  0  0  0
   21.4182   -1.5419  -11.0741 C   0  0  0  0  0  0  0  0  0  0  0  0
   20.8149   -2.4369  -10.2232 C   0  0  0  0  0  0  0  0  0  0  0  0
   19.5684   -2.2082   -9.6765 C   0  0  0  0  0  0  0  0  0  0  0  0
   18.8623   -1.0455   -9.9690 C   0  0  0  0  0  0  0  0  0  0  0  0
   19.4613   -0.1441  -10.8212 C   0  0  0  0  0  0  0  0  0  0  0  0
   18.4753    1.4568  -11.2162 Br  0  0  0  0  0  0  0  0  0  0  0  0
   20.6940   -0.3857  -11.3529 C   0  0  0  0  0  0  0  0  0  0  0  0
   22.9237   -0.6929  -12.6899 N   0  0  0  0  0  0  0  0  0  0  0  0
   23.9226    0.2991  -12.5745 C   0  0  0  0  0  0  0  0  0  0  0  0
   24.4009    1.2115  -13.4835 N   0  0  0  0  0  0  0  0  0  0  0  0
   25.3270    1.8983  -12.8498 N   0  0  0  0  0  0  0  0  0  0  0  0
   25.4390    1.4596  -11.6173 N   0  0  0  0  0  0  0  0  0  0  0  0
   24.5805    0.4742  -11.4319 N   0  0  0  0  0  0  0  0  0  0  0  0
  1  2  1  0
  2  3  2  0
  3  4  1  0
  4  5  2  0
  5  6  1  0
  5  7  1  0
  7  8  1  0
  7  9  2  0
 10  9  1  1
 11 10  1  1
 11 12  1  0
 12 13  1  1
 13 14  2  0
 14 15  1  0
 15 16  2  0
 16 17  1  0
 17 18  1  0
 17 19  2  0
 12 20  1  0
 20 21  1  0
 21 22  2  0
 22 23  1  0
 23 24  2  0
 24 25  1  0
  9  2  1  0
 25 10  1  0
 19 13  1  0
 25 21  1  0
M  END
$$$$
