_rank20
     RDKit          3D

 25 28  0  0  0  0  0  0  0  0999 V2000
   20.5749   -1.0006  -12.5700 F   0  0  0  0  0  0  0  0  0  0  0  0
   21.6733   -0.5049  -13.2014 C   0  0  0  0  0  0  0  0  0  0  0  0
   21.6274   -0.2252  -14.5670 C   0  0  0  0  0  0  0  0  0  0  0  0
   22.7501    0.2822  -15.1871 C   0  0  0  0  0  0  0  0  0  0  0  0
   23.9076    0.5138  -14.4762 C   0  0  0  0  0  0  0  0  0  0  0  0
   25.4430    1.2179  -15.3706 Br  0  0  0  0  0  0  0  0  0  0  0  0
   23.9191    0.2266  -13.1294 C   0  0  0  0  0  0  0  0  0  0  0  0
   25.3929    0.5172  -12.2053 Cl  0  0  0  0  0  0  0  0  0  0  0  0
   22.8084   -0.2894  -12.4515 C   0  0  0  0  0  0  0  0  0  0  0  0
   22.8792   -0.5812  -11.0178 C   0  0  2  0  0  0  0  0  0  0  0  0
   23.7926   -1.7505  -10.7237 C   0  0  0  0  0  0  0  0  0  0  0  0
   23.9501   -1.9806   -9.2609 C   0  0  1  0  0  0  0  0  0  0  0  0
   24.8893   -1.0673   -8.5790 C   0  0  0  0  0  0  0  0  0  0  0  0
   24.5264   -0.0181   -7.7688 C   0  0  0  0  0  0  0  0  0  0  0  0
   25.4574    0.7995   -7.1609 C   0  0  0  0  0  0  0  0  0  0  0  0
   26.8206    0.5916   -7.3466 C   0  0  0  0  0  0  0  0  0  0  0  0
   27.1913   -0.4584   -8.1577 C   0  0  0  0  0  0  0  0  0  0  0  0
   29.0764   -0.7342   -8.4052 Br  0  0  0  0  0  0  0  0  0  0  0  0
   26.2580   -1.2571   -8.7509 C   0  0  0  0  0  0  0  0  0  0  0  0
   22.6781   -1.9090   -8.5873 N   0  0  0  0  0  0  0  0  0  0  0  0
   21.5171   -1.4185   -9.2252 C   0  0  0  0  0  0  0  0  0  0  0  0
   20.1941   -1.4670   -8.8581 N   0  0  0  0  0  0  0  0  0  0  0  0
   19.5328   -0.8531   -9.8156 N   0  0  0  0  0  0  0  0  0  0  0  0
   20.3708   -0.4372  -10.7370 N   0  0  0  0  0  0  0  0  0  0  0  0
   21.5974   -0.7778  -10.3880 N   0  0  0  0  0  0  0  0  0  0  0  0
  1  2  1  0
  2  3  2  0
  3  4  1  0
  4  5  2  0
  5  6  1  0
  5  7  1  0
  7  8  1  0
  7  9  2  0
 10  9  1  6
 11 10  1  1
 11 12  1  0
 12 13  1  1
 13 14  2  0
 14 15  1  0
 15 16  2  0
 16 17  1  0
 17 18  1  0
 17 19  2  0
 12 20  1  0
 20 21  1  0
 21 22  2  0
 22 23  1  0
 23 24  2  0
 24 25  1  0
  9  2  1  0
 25 10  1  0
 19 13  1  0
 25 21  1  0
M  END
$$$$
