_rank2
     RDKit          3D

 25 28  0  0  0  0  0  0  0  0999 V2000
   23.9715    0.5608   -7.6228 F   0  0  0  0  0  0  0  0  0  0  0  0
   25.1969    0.0964   -7.9882 C   0  0  0  0  0  0  0  0  0  0  0  0
   26.2474    0.0999   -7.0708 C   0  0  0  0  0  0  0  0  0  0  0  0
   27.4805   -0.3807   -7.4595 C   0  0  0  0  0  0  0  0  0  0  0  0
   27.6832   -0.8605   -8.7352 C   0  0  0  0  0  0  0  0  0  0  0  0
   29.4062   -1.5184   -9.2367 Br  0  0  0  0  0  0  0  0  0  0  0  0
   26.6247   -0.8496   -9.6162 C   0  0  0  0  0  0  0  0  0  0  0  0
   26.8676   -1.4602  -11.2528 Cl  0  0  0  0  0  0  0  0  0  0  0  0
   25.3539   -0.3734   -9.2735 C   0  0  0  0  0  0  0  0  0  0  0  0
   24.2653   -0.3811  -10.2537 C   0  0  2  0  0  0  0  0  0  0  0  0
   23.7738   -1.7824  -10.5412 C   0  0  0  0  0  0  0  0  0  0  0  0
   22.5978   -1.7842  -11.4546 C   0  0  1  0  0  0  0  0  0  0  0  0
   21.3068   -1.4555  -10.8169 C   0  0  0  0  0  0  0  0  0  0  0  0
   20.7837   -2.0891   -9.7151 C   0  0  0  0  0  0  0  0  0  0  0  0
   19.5679   -1.7320   -9.1681 C   0  0  0  0  0  0  0  0  0  0  0  0
   18.8120   -0.7014   -9.7180 C   0  0  0  0  0  0  0  0  0  0  0  0
   19.3305   -0.0622  -10.8226 C   0  0  0  0  0  0  0  0  0  0  0  0
   18.2766    1.3589  -11.5715 Br  0  0  0  0  0  0  0  0  0  0  0  0
   20.5340   -0.4276  -11.3507 C   0  0  0  0  0  0  0  0  0  0  0  0
   22.8009   -0.8813  -12.5593 N   0  0  0  0  0  0  0  0  0  0  0  0
   23.8617    0.0511  -12.5819 C   0  0  0  0  0  0  0  0  0  0  0  0
   24.3609    0.8293  -13.5981 N   0  0  0  0  0  0  0  0  0  0  0  0
   25.3496    1.5185  -13.0704 N   0  0  0  0  0  0  0  0  0  0  0  0
   25.4798    1.2067  -11.8015 N   0  0  0  0  0  0  0  0  0  0  0  0
   24.5705    0.3038  -11.4850 N   0  0  0  0  0  0  0  0  0  0  0  0
  1  2  1  0
  2  3  2  0
  3  4  1  0
  4  5  2  0
  5  6  1  0
  5  7  1  0
  7  8  1  0
  7  9  2  0
 10  9  1  1
 11 10  1  1
 11 12  1  0
 12 13  1  1
 13 14  2  0
 14 15  1  0
 15 16  2  0
 16 17  1  0
 17 18  1  0
 17 19  2  0
 12 20  1  0
 20 21  1  0
 21 22  2  0
 22 23  1  0
 23 24  2  0
 24 25  1  0
  9  2  1  0
 25 10  1  0
 19 13  1  0
 25 21  1  0
M  END
$$$$
