_rank4
     RDKit          3D

 25 28  0  0  0  0  0  0  0  0999 V2000
   24.4334    0.1703   -7.5058 F   0  0  0  0  0  0  0  0  0  0  0  0
   25.6425   -0.1932   -8.0126 C   0  0  0  0  0  0  0  0  0  0  0  0
   26.7381   -0.3474   -7.1634 C   0  0  0  0  0  0  0  0  0  0  0  0
   27.9538   -0.7221   -7.6965 C   0  0  0  0  0  0  0  0  0  0  0  0
   28.0955   -0.9437   -9.0491 C   0  0  0  0  0  0  0  0  0  0  0  0
   29.7963   -1.4619   -9.7506 Br  0  0  0  0  0  0  0  0  0  0  0  0
   26.9937   -0.7825   -9.8594 C   0  0  0  0  0  0  0  0  0  0  0  0
   27.1583   -1.0623  -11.5929 Cl  0  0  0  0  0  0  0  0  0  0  0  0
   25.7379   -0.4040   -9.3704 C   0  0  0  0  0  0  0  0  0  0  0  0
   24.6012   -0.2424  -10.2801 C   0  0  2  0  0  0  0  0  0  0  0  0
   24.1390   -1.5663  -10.8474 C   0  0  0  0  0  0  0  0  0  0  0  0
   22.9181   -1.4171  -11.6868 C   0  0  1  0  0  0  0  0  0  0  0  0
   21.6521   -1.2894  -10.9370 C   0  0  0  0  0  0  0  0  0  0  0  0
   21.1529   -2.2232  -10.0607 C   0  0  0  0  0  0  0  0  0  0  0  0
   19.9597   -2.0413   -9.3913 C   0  0  0  0  0  0  0  0  0  0  0  0
   19.2034   -0.8887   -9.5793 C   0  0  0  0  0  0  0  0  0  0  0  0
   19.6981    0.0514  -10.4563 C   0  0  0  0  0  0  0  0  0  0  0  0
   18.6438    1.6380  -10.7061 Br  0  0  0  0  0  0  0  0  0  0  0  0
   20.8793   -0.1440  -11.1099 C   0  0  0  0  0  0  0  0  0  0  0  0
   23.0362   -0.2872  -12.5735 N   0  0  0  0  0  0  0  0  0  0  0  0
   24.0653    0.6706  -12.4362 C   0  0  0  0  0  0  0  0  0  0  0  0
   24.4873    1.6720  -13.2769 N   0  0  0  0  0  0  0  0  0  0  0  0
   25.4801    2.2696  -12.6539 N   0  0  0  0  0  0  0  0  0  0  0  0
   25.6849    1.6939  -11.4917 N   0  0  0  0  0  0  0  0  0  0  0  0
   24.8213    0.7068  -11.3425 N   0  0  0  0  0  0  0  0  0  0  0  0
  1  2  1  0
  2  3  2  0
  3  4  1  0
  4  5  2  0
  5  6  1  0
  5  7  1  0
  7  8  1  0
  7  9  2  0
 10  9  1  6
 11 10  1  1
 11 12  1  0
 12 13  1  1
 13 14  2  0
 14 15  1  0
 15 16  2  0
 16 17  1  0
 17 18  1  0
 17 19  2  0
 12 20  1  0
 20 21  1  0
 21 22  2  0
 22 23  1  0
 23 24  2  0
 24 25  1  0
  9  2  1  0
 25 10  1  0
 19 13  1  0
 25 21  1  0
M  END
$$$$
