_rank13
     RDKit          3D

 25 28  0  0  0  0  0  0  0  0999 V2000
   20.4703   -0.4971  -12.4146 F   0  0  0  0  0  0  0  0  0  0  0  0
   20.2303    0.0394  -11.1876 C   0  0  0  0  0  0  0  0  0  0  0  0
   18.9736    0.5654  -10.8888 C   0  0  0  0  0  0  0  0  0  0  0  0
   18.7491    1.0995   -9.6370 C   0  0  0  0  0  0  0  0  0  0  0  0
   19.7463    1.1183   -8.6863 C   0  0  0  0  0  0  0  0  0  0  0  0
   19.3971    1.8669   -6.9627 Br  0  0  0  0  0  0  0  0  0  0  0  0
   20.9755    0.5909   -9.0141 C   0  0  0  0  0  0  0  0  0  0  0  0
   22.2626    0.6074   -7.8084 Cl  0  0  0  0  0  0  0  0  0  0  0  0
   21.2563    0.0372  -10.2687 C   0  0  0  0  0  0  0  0  0  0  0  0
   22.5846   -0.5053  -10.5640 C   0  0  2  0  0  0  0  0  0  0  0  0
   23.4295    0.4685  -11.3550 C   0  0  0  0  0  0  0  0  0  0  0  0
   24.8146   -0.0369  -11.5634 C   0  0  1  0  0  0  0  0  0  0  0  0
   25.7181    0.1109  -10.4045 C   0  0  0  0  0  0  0  0  0  0  0  0
   26.0558    1.3034   -9.8104 C   0  0  0  0  0  0  0  0  0  0  0  0
   26.9089    1.3714   -8.7276 C   0  0  0  0  0  0  0  0  0  0  0  0
   27.4693    0.2188   -8.1860 C   0  0  0  0  0  0  0  0  0  0  0  0
   27.1350   -0.9799   -8.7767 C   0  0  0  0  0  0  0  0  0  0  0  0
   27.9158   -2.5632   -8.0187 Br  0  0  0  0  0  0  0  0  0  0  0  0
   26.2902   -1.0294   -9.8465 C   0  0  0  0  0  0  0  0  0  0  0  0
   24.8045   -1.4232  -11.9569 N   0  0  0  0  0  0  0  0  0  0  0  0
   23.6394   -2.2179  -11.8770 C   0  0  0  0  0  0  0  0  0  0  0  0
   23.3543   -3.4597  -12.3910 N   0  0  0  0  0  0  0  0  0  0  0  0
   22.1239   -3.7313  -12.0126 N   0  0  0  0  0  0  0  0  0  0  0  0
   21.6476   -2.7340  -11.3037 N   0  0  0  0  0  0  0  0  0  0  0  0
   22.5692   -1.7935  -11.2110 N   0  0  0  0  0  0  0  0  0  0  0  0
  1  2  1  0
  2  3  2  0
  3  4  1  0
  4  5  2  0
  5  6  1  0
  5  7  1  0
  7  8  1  0
  7  9  2  0
 10  9  1  6
 11 10  1  1
 11 12  1  0
 12 13  1  1
 13 14  2  0
 14 15  1  0
 15 16  2  0
 16 17  1  0
 17 18  1  0
 17 19  2  0
 12 20  1  0
 20 21  1  0
 21 22  2  0
 22 23  1  0
 23 24  2  0
 24 25  1  0
  9  2  1  0
 25 10  1  0
 19 13  1  0
 25 21  1  0
M  END
$$$$
