_rank5
     RDKit          3D

 25 27  0  0  0  0  0  0  0  0999 V2000
   18.8290    1.4711   -9.2112 C   0  0  0  0  0  0  0  0  0  0  0  0
   19.5617    0.3372   -9.8275 C   0  0  0  0  0  0  0  0  0  0  0  0
   19.0324   -0.9181   -9.8127 C   0  0  0  0  0  0  0  0  0  0  0  0
   19.7116   -1.9836  -10.3869 C   0  0  0  0  0  0  0  0  0  0  0  0
   19.2054   -3.2470  -10.3859 F   0  0  0  0  0  0  0  0  0  0  0  0
   20.9474   -1.7125  -10.9733 C   0  0  0  0  0  0  0  0  0  0  0  0
   21.4715   -0.4361  -10.9811 C   0  0  0  0  0  0  0  0  0  0  0  0
   22.6957   -0.1384  -11.5559 O   0  0  0  0  0  0  0  0  0  0  0  0
   23.8805   -0.1269  -10.8527 C   0  0  0  0  0  0  0  0  0  0  0  0
   23.9025   -0.5713   -9.5307 C   0  0  0  0  0  0  0  0  0  0  0  0
   25.1173   -0.5459   -8.8498 C   0  0  0  0  0  0  0  0  0  0  0  0
   26.2495   -0.0970   -9.4673 C   0  0  0  0  0  0  0  0  0  0  0  0
   27.7565   -0.0721   -8.6032 S   0  0  1  0  0  6  0  0  0  0  0  0
   27.8631   -1.5469   -7.5921 C   0  0  0  0  0  0  0  0  0  0  0  0
   28.9066   -0.0638   -9.5672 O   0  0  0  0  0  0  0  0  0  0  0  0
   27.8512    1.0946   -7.6644 O   0  0  0  0  0  0  0  0  0  0  0  0
   26.1893    0.3329  -10.7703 C   0  0  0  0  0  0  0  0  0  0  0  0
   25.0091    0.3281  -11.4905 C   0  0  0  0  0  0  0  0  0  0  0  0
   25.2578    0.8449  -12.8624 C   0  0  0  0  0  0  0  0  0  0  0  0
   26.7258    0.4193  -13.0176 C   0  0  2  0  0  0  0  0  0  0  0  0
   27.3366    1.0235  -14.0586 F   0  0  0  0  0  0  0  0  0  0  0  0
   26.7569   -0.9550  -13.0592 F   0  0  0  0  0  0  0  0  0  0  0  0
   27.2427    0.8611  -11.6646 C   0  0  1  0  0  0  0  0  0  0  0  0
   27.1628    2.2503  -11.6230 O   0  0  0  0  0  0  0  0  0  0  0  0
   20.7811    0.6111  -10.4048 C   0  0  0  0  0  0  0  0  0  0  0  0
  1  2  1  6
  2  3  2  0
  3  4  1  0
  4  5  1  0
  4  6  2  0
  6  7  1  0
  7  8  1  0
  8  9  1  0
  9 10  2  0
 10 11  1  0
 11 12  2  0
 13 12  1  6
 14 13  1  6
 13 15  2  0
 13 16  2  0
 12 17  1  0
 17 18  2  0
 19 18  1  6
 19 20  1  0
 20 21  1  6
 20 22  1  0
 20 23  1  0
 23 24  1  6
  7 25  2  0
 25  2  1  0
 18  9  1  0
 23 17  1  0
M  END
$$$$
