_rank8
     RDKit          3D

 25 27  0  0  0  0  0  0  0  0999 V2000
   18.1973    1.3517   -9.7794 C   0  0  0  0  0  0  0  0  0  0  0  0
   19.2230    0.3606  -10.1891 C   0  0  0  0  0  0  0  0  0  0  0  0
   18.9409   -0.9723  -10.1763 C   0  0  0  0  0  0  0  0  0  0  0  0
   19.8949   -1.9053  -10.5581 C   0  0  0  0  0  0  0  0  0  0  0  0
   19.6391   -3.2421  -10.5544 F   0  0  0  0  0  0  0  0  0  0  0  0
   21.1418   -1.4204  -10.9512 C   0  0  0  0  0  0  0  0  0  0  0  0
   21.4138   -0.0677  -10.9593 C   0  0  0  0  0  0  0  0  0  0  0  0
   22.6427    0.4415  -11.3447 O   0  0  0  0  0  0  0  0  0  0  0  0
   23.8134    0.1945  -10.6616 C   0  0  0  0  0  0  0  0  0  0  0  0
   23.7646   -0.4059   -9.4035 C   0  0  0  0  0  0  0  0  0  0  0  0
   24.9672   -0.6409   -8.7412 C   0  0  0  0  0  0  0  0  0  0  0  0
   26.1554   -0.2900   -9.3155 C   0  0  0  0  0  0  0  0  0  0  0  0
   27.6463   -0.5905   -8.4754 S   0  0  1  0  0  6  0  0  0  0  0  0
   28.4744    0.9736   -8.1980 C   0  0  0  0  0  0  0  0  0  0  0  0
   27.3724   -1.2336   -7.1474 O   0  0  0  0  0  0  0  0  0  0  0  0
   28.5899   -1.4339   -9.2814 O   0  0  0  0  0  0  0  0  0  0  0  0
   26.1643    0.2993  -10.5559 C   0  0  0  0  0  0  0  0  0  0  0  0
   24.9991    0.5543  -11.2551 C   0  0  0  0  0  0  0  0  0  0  0  0
   25.3265    1.1924  -12.5577 C   0  0  0  0  0  0  0  0  0  0  0  0
   26.7170    0.5794  -12.7834 C   0  0  2  0  0  0  0  0  0  0  0  0
   27.4139    1.2102  -13.7520 F   0  0  0  0  0  0  0  0  0  0  0  0
   26.5467   -0.7694  -12.9913 F   0  0  0  0  0  0  0  0  0  0  0  0
   27.2874    0.7731  -11.3941 C   0  0  1  0  0  0  0  0  0  0  0  0
   27.4115    2.1436  -11.1836 O   0  0  0  0  0  0  0  0  0  0  0  0
   20.4520    0.8453  -10.5761 C   0  0  0  0  0  0  0  0  0  0  0  0
  1  2  1  6
  2  3  2  0
  3  4  1  0
  4  5  1  0
  4  6  2  0
  6  7  1  0
  7  8  1  0
  8  9  1  0
  9 10  2  0
 10 11  1  0
 11 12  2  0
 13 12  1  6
 14 13  1  6
 13 15  2  0
 13 16  2  0
 12 17  1  0
 17 18  2  0
 19 18  1  6
 19 20  1  0
 20 21  1  6
 20 22  1  0
 20 23  1  0
 23 24  1  1
  7 25  2  0
 25  2  1  0
 18  9  1  0
 23 17  1  0
M  END
$$$$
