_rank1
     RDKit          3D

 25 27  0  0  0  0  0  0  0  0999 V2000
   18.8210    1.3996   -9.2233 C   0  0  0  0  0  0  0  0  0  0  0  0
   19.4950    0.2621   -9.8972 C   0  0  0  0  0  0  0  0  0  0  0  0
   18.8955   -0.9599   -9.9574 C   0  0  0  0  0  0  0  0  0  0  0  0
   19.5195   -2.0285  -10.5859 C   0  0  0  0  0  0  0  0  0  0  0  0
   18.9427   -3.2591  -10.6600 F   0  0  0  0  0  0  0  0  0  0  0  0
   20.7748   -1.7959  -11.1467 C   0  0  0  0  0  0  0  0  0  0  0  0
   21.3703   -0.5531  -11.0783 C   0  0  0  0  0  0  0  0  0  0  0  0
   22.6155   -0.2939  -11.6262 O   0  0  0  0  0  0  0  0  0  0  0  0
   23.7835   -0.3111  -10.8955 C   0  0  0  0  0  0  0  0  0  0  0  0
   23.7900   -0.8711   -9.6181 C   0  0  0  0  0  0  0  0  0  0  0  0
   24.9880   -0.8716   -8.9077 C   0  0  0  0  0  0  0  0  0  0  0  0
   26.1191   -0.3365   -9.4547 C   0  0  0  0  0  0  0  0  0  0  0  0
   27.6052   -0.3454   -8.5546 S   0  0  1  0  0  6  0  0  0  0  0  0
   28.0699    1.3472   -8.1968 C   0  0  0  0  0  0  0  0  0  0  0  0
   27.4217   -1.0796   -7.2586 O   0  0  0  0  0  0  0  0  0  0  0  0
   28.7378   -0.9406   -9.3383 O   0  0  0  0  0  0  0  0  0  0  0  0
   26.0744    0.2063  -10.7154 C   0  0  0  0  0  0  0  0  0  0  0  0
   24.9112    0.2317  -11.4623 C   0  0  0  0  0  0  0  0  0  0  0  0
   25.1741    0.8762  -12.7763 C   0  0  0  0  0  0  0  0  0  0  0  0
   26.6576    0.5088  -12.9322 C   0  0  2  0  0  0  0  0  0  0  0  0
   27.2722    1.2212  -13.9000 F   0  0  0  0  0  0  0  0  0  0  0  0
   26.7323   -0.8547  -13.0948 F   0  0  0  0  0  0  0  0  0  0  0  0
   27.1305    0.8426  -11.5328 C   0  0  1  0  0  0  0  0  0  0  0  0
   27.0066    2.2196  -11.3701 O   0  0  0  0  0  0  0  0  0  0  0  0
   20.7340    0.4979  -10.4489 C   0  0  0  0  0  0  0  0  0  0  0  0
  1  2  1  6
  2  3  2  0
  3  4  1  0
  4  5  1  0
  4  6  2  0
  6  7  1  0
  7  8  1  0
  8  9  1  0
  9 10  2  0
 10 11  1  0
 11 12  2  0
 13 12  1  6
 14 13  1  6
 13 15  2  0
 13 16  2  0
 12 17  1  0
 17 18  2  0
 19 18  1  6
 19 20  1  0
 20 21  1  6
 20 22  1  0
 20 23  1  0
 23 24  1  6
  7 25  2  0
 25  2  1  0
 18  9  1  0
 23 17  1  0
M  END
$$$$
