_rank19
     RDKit          3D

 25 27  0  0  0  0  0  0  0  0999 V2000
   18.3424    1.0972  -11.6301 C   0  0  0  0  0  0  0  0  0  0  0  0
   19.4847    0.2393  -11.2287 C   0  0  0  0  0  0  0  0  0  0  0  0
   19.5647   -1.0514  -11.6578 C   0  0  0  0  0  0  0  0  0  0  0  0
   20.6299   -1.8600  -11.2867 C   0  0  0  0  0  0  0  0  0  0  0  0
   20.7338   -3.1522  -11.7012 F   0  0  0  0  0  0  0  0  0  0  0  0
   21.6039   -1.2962  -10.4632 C   0  0  0  0  0  0  0  0  0  0  0  0
   21.5102    0.0125  -10.0361 C   0  0  0  0  0  0  0  0  0  0  0  0
   22.4623    0.5979   -9.2184 O   0  0  0  0  0  0  0  0  0  0  0  0
   23.7957    0.2515   -9.2394 C   0  0  0  0  0  0  0  0  0  0  0  0
   24.3440   -0.4474   -8.1641 C   0  0  0  0  0  0  0  0  0  0  0  0
   25.6951   -0.7814   -8.2185 C   0  0  0  0  0  0  0  0  0  0  0  0
   26.4535   -0.4300   -9.2984 C   0  0  0  0  0  0  0  0  0  0  0  0
   28.1375   -0.8546   -9.3501 S   0  0  1  0  0  6  0  0  0  0  0  0
   29.1115    0.6316   -9.1232 C   0  0  0  0  0  0  0  0  0  0  0  0
   28.4631   -1.8181   -8.2466 O   0  0  0  0  0  0  0  0  0  0  0  0
   28.5366   -1.4255  -10.6791 O   0  0  0  0  0  0  0  0  0  0  0  0
   25.8789    0.2581  -10.3389 C   0  0  0  0  0  0  0  0  0  0  0  0
   24.5428    0.6134  -10.3341 C   0  0  0  0  0  0  0  0  0  0  0  0
   24.2145    1.3430  -11.5875 C   0  0  0  0  0  0  0  0  0  0  0  0
   25.2511    0.6982  -12.5201 C   0  0  2  0  0  0  0  0  0  0  0  0
   25.4087    1.3792  -13.6748 F   0  0  0  0  0  0  0  0  0  0  0  0
   24.8997   -0.6216  -12.6813 F   0  0  0  0  0  0  0  0  0  0  0  0
   26.4572    0.7558  -11.6062 C   0  0  1  0  0  0  0  0  0  0  0  0
   26.7719    2.0989  -11.4183 O   0  0  0  0  0  0  0  0  0  0  0  0
   20.4430    0.8014  -10.4157 C   0  0  0  0  0  0  0  0  0  0  0  0
  1  2  1  6
  2  3  2  0
  3  4  1  0
  4  5  1  0
  4  6  2  0
  6  7  1  0
  7  8  1  0
  8  9  1  0
  9 10  2  0
 10 11  1  0
 11 12  2  0
 13 12  1  6
 14 13  1  6
 13 15  2  0
 13 16  2  0
 12 17  1  0
 17 18  2  0
 19 18  1  6
 19 20  1  0
 20 21  1  6
 20 22  1  0
 20 23  1  0
 23 24  1  1
  7 25  2  0
 25  2  1  0
 18  9  1  0
 23 17  1  0
M  END
$$$$
