_rank7
     RDKit          3D

 25 27  0  0  0  0  0  0  0  0999 V2000
   18.4202   -2.6557  -10.9053 C   0  0  0  0  0  0  0  0  0  0  0  0
   19.3346   -1.5003  -10.7291 C   0  0  0  0  0  0  0  0  0  0  0  0
   18.9280   -0.3945  -10.0448 C   0  0  0  0  0  0  0  0  0  0  0  0
   19.7774    0.6901   -9.8759 C   0  0  0  0  0  0  0  0  0  0  0  0
   19.3963    1.8064   -9.1969 F   0  0  0  0  0  0  0  0  0  0  0  0
   21.0523    0.5964  -10.4330 C   0  0  0  0  0  0  0  0  0  0  0  0
   21.4508   -0.5297  -11.1236 C   0  0  0  0  0  0  0  0  0  0  0  0
   22.7102   -0.6497  -11.6869 O   0  0  0  0  0  0  0  0  0  0  0  0
   23.8780   -0.4768  -10.9764 C   0  0  0  0  0  0  0  0  0  0  0  0
   23.9697   -0.9609   -9.6715 C   0  0  0  0  0  0  0  0  0  0  0  0
   25.1648   -0.7686   -8.9825 C   0  0  0  0  0  0  0  0  0  0  0  0
   26.2116   -0.1232   -9.5761 C   0  0  0  0  0  0  0  0  0  0  0  0
   27.6954    0.1081   -8.7022 S   0  0  1  0  0  6  0  0  0  0  0  0
   27.3298    0.9458   -7.1616 C   0  0  0  0  0  0  0  0  0  0  0  0
   28.3265   -1.2178   -8.3925 O   0  0  0  0  0  0  0  0  0  0  0  0
   28.6587    0.9863   -9.4453 O   0  0  0  0  0  0  0  0  0  0  0  0
   26.0845    0.3398  -10.8628 C   0  0  0  0  0  0  0  0  0  0  0  0
   24.9202    0.1748  -11.5900 C   0  0  0  0  0  0  0  0  0  0  0  0
   25.0843    0.7752  -12.9405 C   0  0  0  0  0  0  0  0  0  0  0  0
   26.6013    0.5937  -13.1020 C   0  0  2  0  0  0  0  0  0  0  0  0
   27.1089    1.3253  -14.1163 F   0  0  0  0  0  0  0  0  0  0  0  0
   26.8500   -0.7558  -13.1937 F   0  0  0  0  0  0  0  0  0  0  0  0
   27.0411    1.0611  -11.7305 C   0  0  1  0  0  0  0  0  0  0  0  0
   26.7419    2.4177  -11.6385 O   0  0  0  0  0  0  0  0  0  0  0  0
   20.5918   -1.5986  -11.2813 C   0  0  0  0  0  0  0  0  0  0  0  0
  1  2  1  6
  2  3  2  0
  3  4  1  0
  4  5  1  0
  4  6  2  0
  6  7  1  0
  7  8  1  0
  8  9  1  0
  9 10  2  0
 10 11  1  0
 11 12  2  0
 13 12  1  6
 14 13  1  6
 13 15  2  0
 13 16  2  0
 12 17  1  0
 17 18  2  0
 19 18  1  6
 19 20  1  0
 20 21  1  6
 20 22  1  0
 20 23  1  0
 23 24  1  6
  7 25  2  0
 25  2  1  0
 18  9  1  0
 23 17  1  0
M  END
$$$$
