_rank3
     RDKit          3D

 25 27  0  0  0  0  0  0  0  0999 V2000
   18.7507    1.7113   -9.3392 C   0  0  0  0  0  0  0  0  0  0  0  0
   19.4430    0.5533   -9.9570 C   0  0  0  0  0  0  0  0  0  0  0  0
   18.8579   -0.6771   -9.9680 C   0  0  0  0  0  0  0  0  0  0  0  0
   19.4991   -1.7650  -10.5439 C   0  0  0  0  0  0  0  0  0  0  0  0
   18.9369   -3.0042  -10.5682 F   0  0  0  0  0  0  0  0  0  0  0  0
   20.7563   -1.5426  -11.1045 C   0  0  0  0  0  0  0  0  0  0  0  0
   21.3372   -0.2912  -11.0863 C   0  0  0  0  0  0  0  0  0  0  0  0
   22.5839   -0.0419  -11.6353 O   0  0  0  0  0  0  0  0  0  0  0  0
   23.7553   -0.0970  -10.9121 C   0  0  0  0  0  0  0  0  0  0  0  0
   23.7443   -0.6223   -9.6200 C   0  0  0  0  0  0  0  0  0  0  0  0
   24.9464   -0.6628   -8.9176 C   0  0  0  0  0  0  0  0  0  0  0  0
   26.0981   -0.1990   -9.4862 C   0  0  0  0  0  0  0  0  0  0  0  0
   27.5889   -0.2570   -8.5959 S   0  0  1  0  0  6  0  0  0  0  0  0
   28.0966    1.4184   -8.2163 C   0  0  0  0  0  0  0  0  0  0  0  0
   27.3956   -1.0058   -7.3097 O   0  0  0  0  0  0  0  0  0  0  0  0
   28.7021   -0.8675   -9.3956 O   0  0  0  0  0  0  0  0  0  0  0  0
   26.0703    0.3114  -10.7609 C   0  0  0  0  0  0  0  0  0  0  0  0
   24.9039    0.3741  -11.5006 C   0  0  0  0  0  0  0  0  0  0  0  0
   25.1878    0.9694  -12.8333 C   0  0  0  0  0  0  0  0  0  0  0  0
   26.6502    0.5254  -12.9888 C   0  0  2  0  0  0  0  0  0  0  0  0
   27.2915    1.1804  -13.9796 F   0  0  0  0  0  0  0  0  0  0  0  0
   26.6566   -0.8441  -13.1148 F   0  0  0  0  0  0  0  0  0  0  0  0
   27.1499    0.8727  -11.6022 C   0  0  1  0  0  0  0  0  0  0  0  0
   27.0950    2.2581  -11.4761 O   0  0  0  0  0  0  0  0  0  0  0  0
   20.6839    0.7790  -10.5088 C   0  0  0  0  0  0  0  0  0  0  0  0
  1  2  1  6
  2  3  2  0
  3  4  1  0
  4  5  1  0
  4  6  2  0
  6  7  1  0
  7  8  1  0
  8  9  1  0
  9 10  2  0
 10 11  1  0
 11 12  2  0
 13 12  1  6
 14 13  1  6
 13 15  2  0
 13 16  2  0
 12 17  1  0
 17 18  2  0
 19 18  1  6
 19 20  1  0
 20 21  1  6
 20 22  1  0
 20 23  1  0
 23 24  1  6
  7 25  2  0
 25  2  1  0
 18  9  1  0
 23 17  1  0
M  END
$$$$
