_rank6
     RDKit          3D

 25 27  0  0  0  0  0  0  0  0999 V2000
   18.6628    1.1107   -9.2078 C   0  0  0  0  0  0  0  0  0  0  0  0
   19.4719    0.0165   -9.7997 C   0  0  0  0  0  0  0  0  0  0  0  0
   19.0173   -1.2677   -9.7813 C   0  0  0  0  0  0  0  0  0  0  0  0
   19.7682   -2.2964  -10.3328 C   0  0  0  0  0  0  0  0  0  0  0  0
   19.3374   -3.5874  -10.3276 F   0  0  0  0  0  0  0  0  0  0  0  0
   20.9962   -1.9581  -10.9004 C   0  0  0  0  0  0  0  0  0  0  0  0
   21.4443   -0.6531  -10.9121 C   0  0  0  0  0  0  0  0  0  0  0  0
   22.6589   -0.2889  -11.4686 O   0  0  0  0  0  0  0  0  0  0  0  0
   23.8443   -0.2867  -10.7662 C   0  0  0  0  0  0  0  0  0  0  0  0
   23.8730   -0.7749   -9.4599 C   0  0  0  0  0  0  0  0  0  0  0  0
   25.0881   -0.7578   -8.7793 C   0  0  0  0  0  0  0  0  0  0  0  0
   26.2141   -0.2746   -9.3822 C   0  0  0  0  0  0  0  0  0  0  0  0
   27.7217   -0.2606   -8.5187 S   0  0  1  0  0  6  0  0  0  0  0  0
   27.5334   -1.2217   -7.0189 C   0  0  0  0  0  0  0  0  0  0  0  0
   28.8038   -0.8785   -9.3551 O   0  0  0  0  0  0  0  0  0  0  0  0
   28.1157    1.1225   -8.0906 O   0  0  0  0  0  0  0  0  0  0  0  0
   26.1474    0.1980  -10.6700 C   0  0  0  0  0  0  0  0  0  0  0  0
   24.9665    0.2032  -11.3891 C   0  0  0  0  0  0  0  0  0  0  0  0
   25.2075    0.7688  -12.7430 C   0  0  0  0  0  0  0  0  0  0  0  0
   26.6804    0.3664  -12.9134 C   0  0  2  0  0  0  0  0  0  0  0  0
   27.2827    1.0126  -13.9340 F   0  0  0  0  0  0  0  0  0  0  0  0
   26.7280   -1.0052  -13.0012 F   0  0  0  0  0  0  0  0  0  0  0  0
   27.1934    0.7686  -11.5466 C   0  0  1  0  0  0  0  0  0  0  0  0
   27.0968    2.1546  -11.4583 O   0  0  0  0  0  0  0  0  0  0  0  0
   20.6832    0.3567  -10.3585 C   0  0  0  0  0  0  0  0  0  0  0  0
  1  2  1  6
  2  3  2  0
  3  4  1  0
  4  5  1  0
  4  6  2  0
  6  7  1  0
  7  8  1  0
  8  9  1  0
  9 10  2  0
 10 11  1  0
 11 12  2  0
 13 12  1  6
 14 13  1  6
 13 15  2  0
 13 16  2  0
 12 17  1  0
 17 18  2  0
 19 18  1  6
 19 20  1  0
 20 21  1  6
 20 22  1  0
 20 23  1  0
 23 24  1  6
  7 25  2  0
 25  2  1  0
 18  9  1  0
 23 17  1  0
M  END
$$$$
