_rank9
     RDKit          3D

 19 21  0  0  0  0  0  0  0  0999 V2000
   28.9162   -1.4773   -9.2882 C   0  0  0  0  0  0  0  0  0  0  0  0
   27.5033   -0.4548   -8.9631 S   0  0  2  0  0  6  0  0  0  0  0  0
   28.0015    0.9480   -8.7459 O   0  0  0  0  0  0  0  0  0  0  0  0
   26.8465   -0.8943   -7.6988 O   0  0  0  0  0  0  0  0  0  0  0  0
   26.3547   -0.5060  -10.3472 C   0  0  2  0  0  0  0  0  0  0  0  0
   26.3794    0.8141  -11.0054 C   0  0  0  0  0  0  0  0  0  0  0  0
   25.0527    1.5260  -11.0478 C   0  0  0  0  0  0  0  0  0  0  0  0
   24.0764    0.5085  -11.6504 C   0  0  0  0  0  0  0  0  0  0  0  0
   23.8356   -0.4942  -10.5561 C   0  0  2  0  0  0  0  0  0  0  0  0
   25.0514   -1.0457   -9.9334 C   0  0  0  0  0  0  0  0  0  0  0  0
   22.9853   -1.5446  -11.1377 N   0  0  0  0  0  0  0  0  0  0  0  0
   21.6269   -1.1087  -11.0295 C   0  0  0  0  0  0  0  0  0  0  0  0
   20.4762   -1.5349  -11.6741 C   0  0  0  0  0  0  0  0  0  0  0  0
   19.2642   -0.9429  -11.3897 C   0  0  0  0  0  0  0  0  0  0  0  0
   18.1445   -1.3680  -12.0266 F   0  0  0  0  0  0  0  0  0  0  0  0
   19.2512    0.0706  -10.4547 C   0  0  0  0  0  0  0  0  0  0  0  0
   20.4009    0.4857   -9.8206 C   0  0  0  0  0  0  0  0  0  0  0  0
   21.6235   -0.0971  -10.0941 C   0  0  0  0  0  0  0  0  0  0  0  0
   22.9209    0.0830   -9.6453 O   0  0  0  0  0  0  0  0  0  0  0  0
  2  1  1  6
  2  3  2  0
  2  4  2  0
  5  2  1  1
  6  5  1  1
  7  6  1  1
  8  7  1  6
  8  9  1  0
 10  9  1  6
  9 11  1  6
 11 12  1  0
 12 13  2  0
 13 14  1  0
 14 15  1  0
 14 16  2  0
 16 17  1  0
 17 18  2  0
 18 19  1  0
 10  5  1  0
 18 12  1  0
  9 19  1  0
M  END
$$$$
