_rank18
     RDKit          3D

 19 21  0  0  0  0  0  0  0  0999 V2000
   28.0346    1.5405   -9.0317 C   0  0  0  0  0  0  0  0  0  0  0  0
   27.0701    0.1055   -9.4294 S   0  0  2  0  0  6  0  0  0  0  0  0
   27.7876   -1.0910   -8.8664 O   0  0  0  0  0  0  0  0  0  0  0  0
   27.0129   -0.0659  -10.9094 O   0  0  0  0  0  0  0  0  0  0  0  0
   25.4203    0.2377   -8.7235 C   0  0  2  0  0  0  0  0  0  0  0  0
   25.2257   -0.9039   -7.8097 C   0  0  0  0  0  0  0  0  0  0  0  0
   24.0681   -1.8030   -8.1564 C   0  0  0  0  0  0  0  0  0  0  0  0
   22.8654   -0.8626   -8.2998 C   0  0  0  0  0  0  0  0  0  0  0  0
   23.0832   -0.1494   -9.6054 C   0  0  2  0  0  0  0  0  0  0  0  0
   24.4132    0.4620   -9.7707 C   0  0  0  0  0  0  0  0  0  0  0  0
   22.0001    0.8395   -9.7220 N   0  0  0  0  0  0  0  0  0  0  0  0
   20.8654    0.1721  -10.2823 C   0  0  0  0  0  0  0  0  0  0  0  0
   19.5243    0.5205  -10.3151 C   0  0  0  0  0  0  0  0  0  0  0  0
   18.6088   -0.3082  -10.9277 C   0  0  0  0  0  0  0  0  0  0  0  0
   17.2988    0.0429  -10.9537 F   0  0  0  0  0  0  0  0  0  0  0  0
   19.0800   -1.4740  -11.4937 C   0  0  0  0  0  0  0  0  0  0  0  0
   20.4149   -1.8099  -11.4551 C   0  0  0  0  0  0  0  0  0  0  0  0
   21.3452   -0.9904  -10.8450 C   0  0  0  0  0  0  0  0  0  0  0  0
   22.7140   -1.0381  -10.6413 O   0  0  0  0  0  0  0  0  0  0  0  0
  2  1  1  6
  2  3  2  0
  2  4  2  0
  5  2  1  6
  6  5  1  1
  7  6  1  1
  8  7  1  6
  8  9  1  0
 10  9  1  6
  9 11  1  1
 11 12  1  0
 12 13  2  0
 13 14  1  0
 14 15  1  0
 14 16  2  0
 16 17  1  0
 17 18  2  0
 18 19  1  0
 10  5  1  0
 18 12  1  0
  9 19  1  0
M  END
$$$$
