_rank19
     RDKit          3D

 19 21  0  0  0  0  0  0  0  0999 V2000
   27.7534    1.9240   -9.0720 C   0  0  0  0  0  0  0  0  0  0  0  0
   26.9310    0.3990   -9.4540 S   0  0  2  0  0  6  0  0  0  0  0  0
   27.7245   -0.7123   -8.8226 O   0  0  0  0  0  0  0  0  0  0  0  0
   26.9480    0.1757  -10.9281 O   0  0  0  0  0  0  0  0  0  0  0  0
   25.2490    0.4111   -8.8151 C   0  0  2  0  0  0  0  0  0  0  0  0
   25.0472   -0.8321   -8.0470 C   0  0  0  0  0  0  0  0  0  0  0  0
   23.9317   -1.7120   -8.5470 C   0  0  0  0  0  0  0  0  0  0  0  0
   22.7102   -0.7895   -8.6384 C   0  0  0  0  0  0  0  0  0  0  0  0
   22.9643    0.0738   -9.8430 C   0  0  2  0  0  0  0  0  0  0  0  0
   24.2825    0.7307   -9.8757 C   0  0  0  0  0  0  0  0  0  0  0  0
   21.8598    1.0442   -9.8966 N   0  0  0  0  0  0  0  0  0  0  0  0
   20.7700    0.4194  -10.5813 C   0  0  0  0  0  0  0  0  0  0  0  0
   19.4221    0.7381  -10.6365 C   0  0  0  0  0  0  0  0  0  0  0  0
   18.5580   -0.0358  -11.3812 C   0  0  0  0  0  0  0  0  0  0  0  0
   17.2410    0.2855  -11.4280 F   0  0  0  0  0  0  0  0  0  0  0  0
   19.0863   -1.1177  -12.0535 C   0  0  0  0  0  0  0  0  0  0  0  0
   20.4271   -1.4248  -11.9913 C   0  0  0  0  0  0  0  0  0  0  0  0
   21.3065   -0.6594  -11.2495 C   0  0  0  0  0  0  0  0  0  0  0  0
   22.6659   -0.6985  -10.9891 O   0  0  0  0  0  0  0  0  0  0  0  0
  2  1  1  6
  2  3  2  0
  2  4  2  0
  5  2  1  6
  6  5  1  1
  7  6  1  1
  8  7  1  6
  8  9  1  0
 10  9  1  6
  9 11  1  1
 11 12  1  0
 12 13  2  0
 13 14  1  0
 14 15  1  0
 14 16  2  0
 16 17  1  0
 17 18  2  0
 18 19  1  0
 10  5  1  0
 18 12  1  0
  9 19  1  0
M  END
$$$$
