_rank12
     RDKit          3D

 19 21  0  0  0  0  0  0  0  0999 V2000
   27.8826   -0.8473  -10.6966 C   0  0  0  0  0  0  0  0  0  0  0  0
   27.5432    0.4801   -9.5695 S   0  0  2  0  0  6  0  0  0  0  0  0
   27.5909    1.7625  -10.3547 O   0  0  0  0  0  0  0  0  0  0  0  0
   28.6180    0.5497   -8.5384 O   0  0  0  0  0  0  0  0  0  0  0  0
   25.9250    0.2675   -8.8121 C   0  0  2  0  0  0  0  0  0  0  0  0
   25.8432   -1.1130   -8.2983 C   0  0  0  0  0  0  0  0  0  0  0  0
   24.7251   -1.9395   -8.8776 C   0  0  0  0  0  0  0  0  0  0  0  0
   23.4633   -1.0898   -8.6845 C   0  0  0  0  0  0  0  0  0  0  0  0
   23.5745    0.0086   -9.7053 C   0  0  2  0  0  0  0  0  0  0  0  0
   24.8564    0.7344   -9.7072 C   0  0  0  0  0  0  0  0  0  0  0  0
   22.4305    0.9046   -9.4748 N   0  0  0  0  0  0  0  0  0  0  0  0
   21.3112    0.3658  -10.1846 C   0  0  0  0  0  0  0  0  0  0  0  0
   19.9518    0.6103  -10.0687 C   0  0  0  0  0  0  0  0  0  0  0  0
   19.0580   -0.0493  -10.8850 C   0  0  0  0  0  0  0  0  0  0  0  0
   17.7298    0.1979  -10.7627 F   0  0  0  0  0  0  0  0  0  0  0  0
   19.5690   -0.9438  -11.8016 C   0  0  0  0  0  0  0  0  0  0  0  0
   20.9217   -1.1787  -11.9079 C   0  0  0  0  0  0  0  0  0  0  0  0
   21.8307   -0.5259  -11.0974 C   0  0  0  0  0  0  0  0  0  0  0  0
   23.2082   -0.5369  -10.9573 O   0  0  0  0  0  0  0  0  0  0  0  0
  2  1  1  6
  2  3  2  0
  2  4  2  0
  5  2  1  6
  6  5  1  1
  7  6  1  1
  8  7  1  6
  8  9  1  0
 10  9  1  6
  9 11  1  1
 11 12  1  0
 12 13  2  0
 13 14  1  0
 14 15  1  0
 14 16  2  0
 16 17  1  0
 17 18  2  0
 18 19  1  0
 10  5  1  0
 18 12  1  0
  9 19  1  0
M  END
$$$$
