_rank4
     RDKit          3D

 19 21  0  0  0  0  0  0  0  0999 V2000
   28.5012   -1.7588   -8.4898 C   0  0  0  0  0  0  0  0  0  0  0  0
   27.4625   -0.3621   -8.8333 S   0  0  2  0  0  6  0  0  0  0  0  0
   28.3585    0.7823   -9.2218 O   0  0  0  0  0  0  0  0  0  0  0  0
   26.7382    0.0411   -7.5939 O   0  0  0  0  0  0  0  0  0  0  0  0
   26.3145   -0.7411  -10.1659 C   0  0  2  0  0  0  0  0  0  0  0  0
   26.4087    0.3393  -11.1660 C   0  0  0  0  0  0  0  0  0  0  0  0
   25.1210    1.0759  -11.4264 C   0  0  0  0  0  0  0  0  0  0  0  0
   24.0937   -0.0197  -11.7363 C   0  0  0  0  0  0  0  0  0  0  0  0
   23.7997   -0.6632  -10.4095 C   0  0  2  0  0  0  0  0  0  0  0  0
   24.9843   -1.0782   -9.6385 C   0  0  0  0  0  0  0  0  0  0  0  0
   22.8965   -1.7907  -10.6881 N   0  0  0  0  0  0  0  0  0  0  0  0
   21.5626   -1.2751  -10.7272 C   0  0  0  0  0  0  0  0  0  0  0  0
   20.3920   -1.8068  -11.2452 C   0  0  0  0  0  0  0  0  0  0  0  0
   19.2122   -1.0995  -11.1567 C   0  0  0  0  0  0  0  0  0  0  0  0
   18.0726   -1.6296  -11.6671 F   0  0  0  0  0  0  0  0  0  0  0  0
   19.2508    0.1344  -10.5421 C   0  0  0  0  0  0  0  0  0  0  0  0
   20.4197    0.6527  -10.0310 C   0  0  0  0  0  0  0  0  0  0  0  0
   21.6107   -0.0434  -10.1117 C   0  0  0  0  0  0  0  0  0  0  0  0
   22.9152    0.1904   -9.7106 O   0  0  0  0  0  0  0  0  0  0  0  0
  2  1  1  1
  2  3  2  0
  2  4  2  0
  5  2  1  1
  6  5  1  1
  7  6  1  1
  8  7  1  6
  8  9  1  0
 10  9  1  6
  9 11  1  6
 11 12  1  0
 12 13  2  0
 13 14  1  0
 14 15  1  0
 14 16  2  0
 16 17  1  0
 17 18  2  0
 18 19  1  0
 10  5  1  0
 18 12  1  0
  9 19  1  0
M  END
$$$$
