_rank11
     RDKit          3D

 19 21  0  0  0  0  0  0  0  0999 V2000
   28.0157   -1.6408   -8.4224 C   0  0  0  0  0  0  0  0  0  0  0  0
   27.7860   -1.0517  -10.0801 S   0  0  2  0  0  6  0  0  0  0  0  0
   27.4442   -2.2394  -10.9380 O   0  0  0  0  0  0  0  0  0  0  0  0
   29.0665   -0.4861  -10.5933 O   0  0  0  0  0  0  0  0  0  0  0  0
   26.4638    0.1672  -10.1397 C   0  0  2  0  0  0  0  0  0  0  0  0
   26.3171    0.7428   -8.7893 C   0  0  0  0  0  0  0  0  0  0  0  0
   24.9560    0.5653   -8.1692 C   0  0  0  0  0  0  0  0  0  0  0  0
   23.9705    1.0918   -9.2195 C   0  0  0  0  0  0  0  0  0  0  0  0
   23.9439    0.0370  -10.2907 C   0  0  2  0  0  0  0  0  0  0  0  0
   25.2651   -0.3838  -10.7882 C   0  0  0  0  0  0  0  0  0  0  0  0
   23.0878    0.5616  -11.3662 N   0  0  0  0  0  0  0  0  0  0  0  0
   21.7330    0.2472  -11.0308 C   0  0  0  0  0  0  0  0  0  0  0  0
   20.5331    0.7567  -11.5018 C   0  0  0  0  0  0  0  0  0  0  0  0
   19.3375    0.2783  -11.0099 C   0  0  0  0  0  0  0  0  0  0  0  0
   18.1693    0.7843  -11.4781 F   0  0  0  0  0  0  0  0  0  0  0  0
   19.3908   -0.7089  -10.0485 C   0  0  0  0  0  0  0  0  0  0  0  0
   20.5889   -1.2076   -9.5880 C   0  0  0  0  0  0  0  0  0  0  0  0
   21.7959   -0.7390  -10.0707 C   0  0  0  0  0  0  0  0  0  0  0  0
   23.1291   -1.0205   -9.8248 O   0  0  0  0  0  0  0  0  0  0  0  0
  2  1  1  1
  2  3  2  0
  2  4  2  0
  5  2  1  1
  6  5  1  1
  7  6  1  1
  8  7  1  6
  8  9  1  0
 10  9  1  6
  9 11  1  6
 11 12  1  0
 12 13  2  0
 13 14  1  0
 14 15  1  0
 14 16  2  0
 16 17  1  0
 17 18  2  0
 18 19  1  0
 10  5  1  0
 18 12  1  0
  9 19  1  0
M  END
$$$$
