_rank19
     RDKit          3D

 20 22  0  0  0  0  0  0  0  0999 V2000
   25.4838   -0.3590  -12.8663 O   0  0  0  0  0  0  0  0  0  0  0  0
   26.2650   -0.1221  -11.9546 N   0  0  0  0  0  4  0  0  0  0  0  0
   27.5719    0.1608  -12.2320 O   0  0  0  0  0  1  0  0  0  0  0  0
   25.8556   -0.1538  -10.6009 C   0  0  0  0  0  0  0  0  0  0  0  0
   24.6009   -0.5803  -10.2365 C   0  0  0  0  0  0  0  0  0  0  0  0
   23.6311   -1.0196  -11.1662 N   0  0  0  0  0  0  0  0  0  0  0  0
   22.2381   -0.9064  -11.0659 C   0  0  0  0  0  0  0  0  0  0  0  0
   21.5447   -1.5641  -10.0770 C   0  0  0  0  0  0  0  0  0  0  0  0
   20.1751   -1.4664   -9.9643 C   0  0  0  0  0  0  0  0  0  0  0  0
   19.4342   -0.7032  -10.8405 C   0  0  0  0  0  0  0  0  0  0  0  0
   20.1164   -0.0361  -11.8394 C   0  0  0  0  0  0  0  0  0  0  0  0
   19.3817    0.7211  -12.7081 F   0  0  0  0  0  0  0  0  0  0  0  0
   21.4896   -0.1402  -11.9433 C   0  0  0  0  0  0  0  0  0  0  0  0
   24.3037   -0.5225   -8.8671 C   0  0  0  0  0  0  0  0  0  0  0  0
   25.1999   -0.0700   -7.9304 C   0  0  0  0  0  0  0  0  0  0  0  0
   26.4536    0.3534   -8.3108 C   0  0  0  0  0  0  0  0  0  0  0  0
   27.5353    0.8376   -7.6719 N   0  0  0  0  0  0  0  0  0  0  0  0
   28.4624    1.0763   -8.5547 O   0  0  0  0  0  0  0  0  0  0  0  0
   28.0311    0.7692   -9.7321 N   0  0  0  0  0  0  0  0  0  0  0  0
   26.7739    0.3090   -9.6419 C   0  0  0  0  0  0  0  0  0  0  0  0
  1  2  2  0
  2  3  1  0
  2  4  1  0
  4  5  2  0
  5  6  1  0
  6  7  1  0
  7  8  2  0
  8  9  1  0
  9 10  2  0
 10 11  1  0
 11 12  1  0
 11 13  2  0
  5 14  1  0
 14 15  2  0
 15 16  1  0
 16 17  2  0
 17 18  1  0
 18 19  1  0
 19 20  2  0
 20  4  1  0
 13  7  1  0
 20 16  1  0
M  CHG  2   2   1   3  -1
M  END
$$$$
