_rank13
     RDKit          3D

 21 23  0  0  0  0  0  0  0  0999 V2000
   27.5337   -0.4005  -12.0310 O   0  0  0  0  0  0  0  0  0  0  0  0
   26.3178   -0.4147  -11.7849 N   0  0  0  0  0  4  0  0  0  0  0  0
   25.5088   -0.4320  -12.9287 O   0  0  0  0  0  1  0  0  0  0  0  0
   25.7261   -0.3330  -10.5003 C   0  0  0  0  0  0  0  0  0  0  0  0
   24.4213   -0.4447  -10.1704 C   0  0  0  0  0  0  0  0  0  0  0  0
   23.3672   -0.6780  -11.0515 N   0  0  0  0  0  0  0  0  0  0  0  0
   21.9895   -0.8770  -10.8665 C   0  0  0  0  0  0  0  0  0  0  0  0
   21.2801   -2.0032  -11.1221 C   0  0  0  0  0  0  0  0  0  0  0  0
   19.9006   -2.1276  -10.8699 C   0  0  0  0  0  0  0  0  0  0  0  0
   19.3274   -3.3112  -11.1734 F   0  0  0  0  0  0  0  0  0  0  0  0
   19.2248   -1.0739  -10.3427 C   0  0  0  0  0  0  0  0  0  0  0  0
   19.8946    0.1103  -10.0585 C   0  0  0  0  0  0  0  0  0  0  0  0
   18.9556    1.4247   -9.3747 Cl  0  0  0  0  0  0  0  0  0  0  0  0
   21.2287    0.1856  -10.3181 C   0  0  0  0  0  0  0  0  0  0  0  0
   24.0108   -0.2266   -8.8106 C   0  0  0  0  0  0  0  0  0  0  0  0
   24.8879    0.0896   -7.8301 C   0  0  0  0  0  0  0  0  0  0  0  0
   26.2149    0.1997   -8.1732 C   0  0  0  0  0  0  0  0  0  0  0  0
   27.3105    0.4878   -7.4445 N   0  0  0  0  0  0  0  0  0  0  0  0
   28.3385    0.4626   -8.2450 O   0  0  0  0  0  0  0  0  0  0  0  0
   27.9625    0.1705   -9.4618 N   0  0  0  0  0  0  0  0  0  0  0  0
   26.6300   -0.0016   -9.4565 C   0  0  0  0  0  0  0  0  0  0  0  0
  1  2  2  0
  2  3  1  0
  2  4  1  0
  4  5  2  0
  5  6  1  0
  6  7  1  0
  7  8  2  0
  8  9  1  0
  9 10  1  0
  9 11  2  0
 11 12  1  0
 12 13  1  0
 12 14  2  0
  5 15  1  0
 15 16  2  0
 16 17  1  0
 17 18  2  0
 18 19  1  0
 19 20  1  0
 20 21  2  0
 21  4  1  0
 14  7  1  0
 21 17  1  0
M  CHG  2   2   1   3  -1
M  END
$$$$
