_rank11
     RDKit          3D

 21 23  0  0  0  0  0  0  0  0999 V2000
   25.7618    0.2989  -12.9542 O   0  0  0  0  0  0  0  0  0  0  0  0
   26.3177   -0.1472  -11.9387 N   0  0  0  0  0  4  0  0  0  0  0  0
   27.5954   -0.6706  -12.1766 O   0  0  0  0  0  1  0  0  0  0  0  0
   25.7458   -0.2352  -10.6456 C   0  0  0  0  0  0  0  0  0  0  0  0
   24.4493   -0.4156  -10.3137 C   0  0  0  0  0  0  0  0  0  0  0  0
   23.3858   -0.5642  -11.2018 N   0  0  0  0  0  0  0  0  0  0  0  0
   22.0123   -0.7948  -11.0224 C   0  0  0  0  0  0  0  0  0  0  0  0
   21.3350   -1.9458  -11.2540 C   0  0  0  0  0  0  0  0  0  0  0  0
   19.9572   -2.1001  -11.0094 C   0  0  0  0  0  0  0  0  0  0  0  0
   19.4179   -3.3061  -11.2862 F   0  0  0  0  0  0  0  0  0  0  0  0
   19.2494   -1.0514  -10.5153 C   0  0  0  0  0  0  0  0  0  0  0  0
   19.8853    0.1572  -10.2571 C   0  0  0  0  0  0  0  0  0  0  0  0
   18.9062    1.4635   -9.6155 Cl  0  0  0  0  0  0  0  0  0  0  0  0
   21.2191    0.2611  -10.5081 C   0  0  0  0  0  0  0  0  0  0  0  0
   24.0569   -0.3733   -8.9318 C   0  0  0  0  0  0  0  0  0  0  0  0
   24.9433   -0.1584   -7.9325 C   0  0  0  0  0  0  0  0  0  0  0  0
   26.2619    0.0225   -8.2781 C   0  0  0  0  0  0  0  0  0  0  0  0
   27.3632    0.2449   -7.5351 N   0  0  0  0  0  0  0  0  0  0  0  0
   28.3781    0.3402   -8.3469 O   0  0  0  0  0  0  0  0  0  0  0  0
   27.9882    0.1894   -9.5849 N   0  0  0  0  0  0  0  0  0  0  0  0
   26.6598   -0.0123   -9.5820 C   0  0  0  0  0  0  0  0  0  0  0  0
  1  2  2  0
  2  3  1  0
  2  4  1  0
  4  5  2  0
  5  6  1  0
  6  7  1  0
  7  8  2  0
  8  9  1  0
  9 10  1  0
  9 11  2  0
 11 12  1  0
 12 13  1  0
 12 14  2  0
  5 15  1  0
 15 16  2  0
 16 17  1  0
 17 18  2  0
 18 19  1  0
 19 20  1  0
 20 21  2  0
 21  4  1  0
 14  7  1  0
 21 17  1  0
M  CHG  2   2   1   3  -1
M  END
$$$$
