_rank18
     RDKit          3D

 20 22  0  0  0  0  0  0  0  0999 V2000
   27.3657    0.8005  -12.1451 O   0  0  0  0  0  0  0  0  0  0  0  0
   26.3304    0.1771  -11.9526 N   0  0  0  0  0  4  0  0  0  0  0  0
   25.6421   -0.3460  -13.0099 O   0  0  0  0  0  1  0  0  0  0  0  0
   25.8050   -0.0033  -10.6516 C   0  0  0  0  0  0  0  0  0  0  0  0
   24.4562   -0.1511  -10.4325 C   0  0  0  0  0  0  0  0  0  0  0  0
   23.4965   -0.1397  -11.4701 N   0  0  0  0  0  0  0  0  0  0  0  0
   22.1717   -0.5927  -11.4139 C   0  0  0  0  0  0  0  0  0  0  0  0
   21.2440   -0.1817  -12.3421 C   0  0  0  0  0  0  0  0  0  0  0  0
   19.9368   -0.6147  -12.3012 C   0  0  0  0  0  0  0  0  0  0  0  0
   19.4969   -1.4820  -11.3248 C   0  0  0  0  0  0  0  0  0  0  0  0
   20.4171   -1.9042  -10.3851 C   0  0  0  0  0  0  0  0  0  0  0  0
   19.9809   -2.7646   -9.4169 F   0  0  0  0  0  0  0  0  0  0  0  0
   21.7253   -1.4646  -10.4353 C   0  0  0  0  0  0  0  0  0  0  0  0
   24.0596   -0.2788   -9.0934 C   0  0  0  0  0  0  0  0  0  0  0  0
   24.9509   -0.2599   -8.0490 C   0  0  0  0  0  0  0  0  0  0  0  0
   26.2994   -0.1117   -8.2845 C   0  0  0  0  0  0  0  0  0  0  0  0
   27.4045   -0.0544   -7.5176 N   0  0  0  0  0  0  0  0  0  0  0  0
   28.4378    0.0986   -8.2951 O   0  0  0  0  0  0  0  0  0  0  0  0
   28.0528    0.1425   -9.5266 N   0  0  0  0  0  0  0  0  0  0  0  0
   26.7181    0.0154   -9.5825 C   0  0  0  0  0  0  0  0  0  0  0  0
  1  2  2  0
  2  3  1  0
  2  4  1  0
  4  5  2  0
  5  6  1  0
  6  7  1  0
  7  8  2  0
  8  9  1  0
  9 10  2  0
 10 11  1  0
 11 12  1  0
 11 13  2  0
  5 14  1  0
 14 15  2  0
 15 16  1  0
 16 17  2  0
 17 18  1  0
 18 19  1  0
 19 20  2  0
 20  4  1  0
 13  7  1  0
 20 16  1  0
M  CHG  2   2   1   3  -1
M  END
$$$$
