_rank13
     RDKit          3D

 20 22  0  0  0  0  0  0  0  0999 V2000
   24.8272   -0.3948  -13.2680 O   0  0  0  0  0  0  0  0  0  0  0  0
   25.6522   -0.1665  -12.3935 N   0  0  0  0  0  4  0  0  0  0  0  0
   26.9425    0.1263  -12.7323 O   0  0  0  0  0  1  0  0  0  0  0  0
   25.3116   -0.2182  -11.0216 C   0  0  0  0  0  0  0  0  0  0  0  0
   24.0393   -0.5300  -10.6055 C   0  0  0  0  0  0  0  0  0  0  0  0
   22.9825   -0.8242  -11.4968 N   0  0  0  0  0  0  0  0  0  0  0  0
   21.6063   -0.7210  -11.2544 C   0  0  0  0  0  0  0  0  0  0  0  0
   21.1218    0.1107  -10.2720 C   0  0  0  0  0  0  0  0  0  0  0  0
   19.7725    0.2232  -10.0180 C   0  0  0  0  0  0  0  0  0  0  0  0
   18.8429   -0.4952  -10.7384 C   0  0  0  0  0  0  0  0  0  0  0  0
   19.3139   -1.3349  -11.7288 C   0  0  0  0  0  0  0  0  0  0  0  0
   18.3920   -2.0472  -12.4435 F   0  0  0  0  0  0  0  0  0  0  0  0
   20.6686   -1.4401  -11.9759 C   0  0  0  0  0  0  0  0  0  0  0  0
   23.8202   -0.5051   -9.2205 C   0  0  0  0  0  0  0  0  0  0  0  0
   24.8056   -0.1905   -8.3175 C   0  0  0  0  0  0  0  0  0  0  0  0
   26.0758    0.1190   -8.7496 C   0  0  0  0  0  0  0  0  0  0  0  0
   27.2335    0.4597   -8.1528 N   0  0  0  0  0  0  0  0  0  0  0  0
   28.1343    0.6423   -9.0754 O   0  0  0  0  0  0  0  0  0  0  0  0
   27.6135    0.4356  -10.2385 N   0  0  0  0  0  0  0  0  0  0  0  0
   26.3211    0.1033  -10.0972 C   0  0  0  0  0  0  0  0  0  0  0  0
  1  2  2  0
  2  3  1  0
  2  4  1  0
  4  5  2  0
  5  6  1  0
  6  7  1  0
  7  8  2  0
  8  9  1  0
  9 10  2  0
 10 11  1  0
 11 12  1  0
 11 13  2  0
  5 14  1  0
 14 15  2  0
 15 16  1  0
 16 17  2  0
 17 18  1  0
 18 19  1  0
 19 20  2  0
 20  4  1  0
 13  7  1  0
 20 16  1  0
M  CHG  2   2   1   3  -1
M  END
$$$$
