_rank5
     RDKit          3D

 20 22  0  0  0  0  0  0  0  0999 V2000
   25.1926   -0.0497  -12.9373 O   0  0  0  0  0  0  0  0  0  0  0  0
   26.0013    0.0317  -12.0225 N   0  0  0  0  0  4  0  0  0  0  0  0
   27.3315    0.1728  -12.2982 O   0  0  0  0  0  1  0  0  0  0  0  0
   25.5981   -0.0384  -10.6685 C   0  0  0  0  0  0  0  0  0  0  0  0
   24.2945   -0.2945  -10.3164 C   0  0  0  0  0  0  0  0  0  0  0  0
   23.2646   -0.5098  -11.2602 N   0  0  0  0  0  0  0  0  0  0  0  0
   21.8903   -0.6274  -11.0136 C   0  0  0  0  0  0  0  0  0  0  0  0
   21.2190   -1.7945  -11.2937 C   0  0  0  0  0  0  0  0  0  0  0  0
   19.8678   -1.9275  -11.0601 C   0  0  0  0  0  0  0  0  0  0  0  0
   19.1240   -0.8937  -10.5338 C   0  0  0  0  0  0  0  0  0  0  0  0
   19.7841    0.2853  -10.2468 C   0  0  0  0  0  0  0  0  0  0  0  0
   19.0464    1.3105   -9.7246 F   0  0  0  0  0  0  0  0  0  0  0  0
   21.1390    0.4082  -10.4843 C   0  0  0  0  0  0  0  0  0  0  0  0
   24.0158   -0.2948   -8.9419 C   0  0  0  0  0  0  0  0  0  0  0  0
   24.9750   -0.0558   -7.9889 C   0  0  0  0  0  0  0  0  0  0  0  0
   26.2772    0.1986   -8.3571 C   0  0  0  0  0  0  0  0  0  0  0  0
   27.4231    0.4629   -7.7018 N   0  0  0  0  0  0  0  0  0  0  0  0
   28.3719    0.6227   -8.5793 O   0  0  0  0  0  0  0  0  0  0  0  0
   27.8933    0.4740   -9.7691 N   0  0  0  0  0  0  0  0  0  0  0  0
   26.5808    0.2057   -9.6929 C   0  0  0  0  0  0  0  0  0  0  0  0
  1  2  2  0
  2  3  1  0
  2  4  1  0
  4  5  2  0
  5  6  1  0
  6  7  1  0
  7  8  2  0
  8  9  1  0
  9 10  2  0
 10 11  1  0
 11 12  1  0
 11 13  2  0
  5 14  1  0
 14 15  2  0
 15 16  1  0
 16 17  2  0
 17 18  1  0
 18 19  1  0
 19 20  2  0
 20  4  1  0
 13  7  1  0
 20 16  1  0
M  CHG  2   2   1   3  -1
M  END
$$$$
