_rank18
     RDKit          3D

 21 23  0  0  0  0  0  0  0  0999 V2000
   27.6794    0.5105  -12.0712 O   0  0  0  0  0  0  0  0  0  0  0  0
   26.5013    0.2152  -11.8182 N   0  0  0  0  0  4  0  0  0  0  0  0
   25.6510    0.2764  -12.9301 O   0  0  0  0  0  1  0  0  0  0  0  0
   25.9722   -0.0796  -10.5375 C   0  0  0  0  0  0  0  0  0  0  0  0
   24.6915   -0.3452  -10.2012 C   0  0  0  0  0  0  0  0  0  0  0  0
   23.6051   -0.3922  -11.0726 N   0  0  0  0  0  0  0  0  0  0  0  0
   22.2668   -0.7872  -10.9154 C   0  0  0  0  0  0  0  0  0  0  0  0
   21.7547   -1.5903   -9.9511 C   0  0  0  0  0  0  0  0  0  0  0  0
   20.3865   -1.9054   -9.8468 C   0  0  0  0  0  0  0  0  0  0  0  0
   20.0212   -2.7173   -8.8324 F   0  0  0  0  0  0  0  0  0  0  0  0
   19.5155   -1.3877  -10.7514 C   0  0  0  0  0  0  0  0  0  0  0  0
   19.9776   -0.5574  -11.7658 C   0  0  0  0  0  0  0  0  0  0  0  0
   18.7924    0.0764  -12.8929 Cl  0  0  0  0  0  0  0  0  0  0  0  0
   21.3087   -0.2793  -11.8279 C   0  0  0  0  0  0  0  0  0  0  0  0
   24.3412   -0.5190   -8.8183 C   0  0  0  0  0  0  0  0  0  0  0  0
   25.2526   -0.4281   -7.8225 C   0  0  0  0  0  0  0  0  0  0  0  0
   26.5549   -0.1594   -8.1727 C   0  0  0  0  0  0  0  0  0  0  0  0
   27.6727   -0.0168   -7.4349 N   0  0  0  0  0  0  0  0  0  0  0  0
   28.6592    0.2272   -8.2507 O   0  0  0  0  0  0  0  0  0  0  0  0
   28.2350    0.2494   -9.4864 N   0  0  0  0  0  0  0  0  0  0  0  0
   26.9129    0.0106   -9.4776 C   0  0  0  0  0  0  0  0  0  0  0  0
  1  2  2  0
  2  3  1  0
  2  4  1  0
  4  5  2  0
  5  6  1  0
  6  7  1  0
  7  8  2  0
  8  9  1  0
  9 10  1  0
  9 11  2  0
 11 12  1  0
 12 13  1  0
 12 14  2  0
  5 15  1  0
 15 16  2  0
 16 17  1  0
 17 18  2  0
 18 19  1  0
 19 20  1  0
 20 21  2  0
 21  4  1  0
 14  7  1  0
 21 17  1  0
M  CHG  2   2   1   3  -1
M  END
$$$$
