_rank6
     RDKit          3D

 20 22  0  0  0  0  0  0  0  0999 V2000
   24.8227    0.3976  -12.8052 O   0  0  0  0  0  0  0  0  0  0  0  0
   25.6741   -0.0481  -12.0476 N   0  0  0  0  0  4  0  0  0  0  0  0
   26.8620   -0.5010  -12.5467 O   0  0  0  0  0  1  0  0  0  0  0  0
   25.4550   -0.1301  -10.6525 C   0  0  0  0  0  0  0  0  0  0  0  0
   24.2786   -0.6168  -10.1345 C   0  0  0  0  0  0  0  0  0  0  0  0
   23.2080   -1.0725  -10.9370 N   0  0  0  0  0  0  0  0  0  0  0  0
   21.8446   -0.7876  -10.7851 C   0  0  0  0  0  0  0  0  0  0  0  0
   21.4279    0.3335  -10.1062 C   0  0  0  0  0  0  0  0  0  0  0  0
   20.0919    0.6284   -9.9449 C   0  0  0  0  0  0  0  0  0  0  0  0
   19.1081   -0.1892  -10.4575 C   0  0  0  0  0  0  0  0  0  0  0  0
   19.5108   -1.3193  -11.1423 C   0  0  0  0  0  0  0  0  0  0  0  0
   18.5351   -2.1300  -11.6510 F   0  0  0  0  0  0  0  0  0  0  0  0
   20.8527   -1.6056  -11.2989 C   0  0  0  0  0  0  0  0  0  0  0  0
   24.1693   -0.6053   -8.7363 C   0  0  0  0  0  0  0  0  0  0  0  0
   25.1674   -0.1396   -7.9164 C   0  0  0  0  0  0  0  0  0  0  0  0
   26.3408    0.3444   -8.4503 C   0  0  0  0  0  0  0  0  0  0  0  0
   27.4807    0.8568   -7.9495 N   0  0  0  0  0  0  0  0  0  0  0  0
   28.2689    1.1552   -8.9422 O   0  0  0  0  0  0  0  0  0  0  0  0
   27.6927    0.8598  -10.0591 N   0  0  0  0  0  0  0  0  0  0  0  0
   26.4776    0.3462   -9.8132 C   0  0  0  0  0  0  0  0  0  0  0  0
  1  2  2  0
  2  3  1  0
  2  4  1  0
  4  5  2  0
  5  6  1  0
  6  7  1  0
  7  8  2  0
  8  9  1  0
  9 10  2  0
 10 11  1  0
 11 12  1  0
 11 13  2  0
  5 14  1  0
 14 15  2  0
 15 16  1  0
 16 17  2  0
 17 18  1  0
 18 19  1  0
 19 20  2  0
 20  4  1  0
 13  7  1  0
 20 16  1  0
M  CHG  2   2   1   3  -1
M  END
$$$$
