_rank8
     RDKit          3D

 20 22  0  0  0  0  0  0  0  0999 V2000
   26.4382   -1.0273  -12.5119 O   0  0  0  0  0  0  0  0  0  0  0  0
   25.7872   -0.1326  -11.9892 N   0  0  0  0  0  4  0  0  0  0  0  0
   25.3793    0.9382  -12.7324 O   0  0  0  0  0  1  0  0  0  0  0  0
   25.4572   -0.1626  -10.6140 C   0  0  0  0  0  0  0  0  0  0  0  0
   24.2143   -0.5559  -10.1788 C   0  0  0  0  0  0  0  0  0  0  0  0
   23.1793   -0.9605  -11.0523 N   0  0  0  0  0  0  0  0  0  0  0  0
   21.8041   -0.7324  -10.9113 C   0  0  0  0  0  0  0  0  0  0  0  0
   21.3356    0.3935  -10.2755 C   0  0  0  0  0  0  0  0  0  0  0  0
   19.9874    0.6333  -10.1256 C   0  0  0  0  0  0  0  0  0  0  0  0
   19.0426   -0.2471  -10.6068 C   0  0  0  0  0  0  0  0  0  0  0  0
   19.4974   -1.3829  -11.2482 C   0  0  0  0  0  0  0  0  0  0  0  0
   18.5605   -2.2559  -11.7257 F   0  0  0  0  0  0  0  0  0  0  0  0
   20.8513   -1.6136  -11.3937 C   0  0  0  0  0  0  0  0  0  0  0  0
   23.9998   -0.4998   -8.7940 C   0  0  0  0  0  0  0  0  0  0  0  0
   24.9621   -0.0799   -7.9090 C   0  0  0  0  0  0  0  0  0  0  0  0
   26.2031    0.3104   -8.3602 C   0  0  0  0  0  0  0  0  0  0  0  0
   27.3338    0.7589   -7.7834 N   0  0  0  0  0  0  0  0  0  0  0  0
   28.2141    0.9776   -8.7178 O   0  0  0  0  0  0  0  0  0  0  0  0
   27.7058    0.6916   -9.8696 N   0  0  0  0  0  0  0  0  0  0  0  0
   26.4432    0.2668   -9.7081 C   0  0  0  0  0  0  0  0  0  0  0  0
  1  2  2  0
  2  3  1  0
  2  4  1  0
  4  5  2  0
  5  6  1  0
  6  7  1  0
  7  8  2  0
  8  9  1  0
  9 10  2  0
 10 11  1  0
 11 12  1  0
 11 13  2  0
  5 14  1  0
 14 15  2  0
 15 16  1  0
 16 17  2  0
 17 18  1  0
 18 19  1  0
 19 20  2  0
 20  4  1  0
 13  7  1  0
 20 16  1  0
M  CHG  2   2   1   3  -1
M  END
$$$$
