_rank5
     RDKit          3D

 21 23  0  0  0  0  0  0  0  0999 V2000
   27.3463    0.2564  -12.3355 O   0  0  0  0  0  0  0  0  0  0  0  0
   26.1607    0.1156  -11.9981 N   0  0  0  0  0  4  0  0  0  0  0  0
   25.2499    0.2738  -13.0510 O   0  0  0  0  0  1  0  0  0  0  0  0
   25.6887   -0.0975  -10.6795 C   0  0  0  0  0  0  0  0  0  0  0  0
   24.4292   -0.3678  -10.2741 C   0  0  0  0  0  0  0  0  0  0  0  0
   23.3119   -0.5036  -11.0958 N   0  0  0  0  0  0  0  0  0  0  0  0
   21.9313   -0.5250  -10.8405 C   0  0  0  0  0  0  0  0  0  0  0  0
   21.1688    0.4868  -10.3589 C   0  0  0  0  0  0  0  0  0  0  0  0
   19.7773    0.3893  -10.1681 C   0  0  0  0  0  0  0  0  0  0  0  0
   19.1483    1.4802   -9.6824 F   0  0  0  0  0  0  0  0  0  0  0  0
   19.1451   -0.7727  -10.4764 C   0  0  0  0  0  0  0  0  0  0  0  0
   19.8707   -1.8487  -10.9738 C   0  0  0  0  0  0  0  0  0  0  0  0
   18.9839   -3.3139  -11.3533 Cl  0  0  0  0  0  0  0  0  0  0  0  0
   21.2142   -1.7095  -11.1427 C   0  0  0  0  0  0  0  0  0  0  0  0
   24.1365   -0.4485   -8.8694 C   0  0  0  0  0  0  0  0  0  0  0  0
   25.0824   -0.2640   -7.9198 C   0  0  0  0  0  0  0  0  0  0  0  0
   26.3629    0.0089   -8.3402 C   0  0  0  0  0  0  0  0  0  0  0  0
   27.5039    0.2311   -7.6597 N   0  0  0  0  0  0  0  0  0  0  0  0
   28.4519    0.4380   -8.5296 O   0  0  0  0  0  0  0  0  0  0  0  0
   27.9805    0.3602   -9.7458 N   0  0  0  0  0  0  0  0  0  0  0  0
   26.6664    0.0917   -9.6671 C   0  0  0  0  0  0  0  0  0  0  0  0
  1  2  2  0
  2  3  1  0
  2  4  1  0
  4  5  2  0
  5  6  1  0
  6  7  1  0
  7  8  2  0
  8  9  1  0
  9 10  1  0
  9 11  2  0
 11 12  1  0
 12 13  1  0
 12 14  2  0
  5 15  1  0
 15 16  2  0
 16 17  1  0
 17 18  2  0
 18 19  1  0
 19 20  1  0
 20 21  2  0
 21  4  1  0
 14  7  1  0
 21 17  1  0
M  CHG  2   2   1   3  -1
M  END
$$$$
