_rank10
     RDKit          3D

 20 22  0  0  0  0  0  0  0  0999 V2000
   24.8799   -0.0426  -13.0493 O   0  0  0  0  0  0  0  0  0  0  0  0
   25.7201    0.0625  -12.1658 N   0  0  0  0  0  4  0  0  0  0  0  0
   27.0247    0.3041  -12.4899 O   0  0  0  0  0  1  0  0  0  0  0  0
   25.3813   -0.0818  -10.8000 C   0  0  0  0  0  0  0  0  0  0  0  0
   24.1152   -0.4421  -10.4050 C   0  0  0  0  0  0  0  0  0  0  0  0
   23.0633   -0.6985  -11.3136 N   0  0  0  0  0  0  0  0  0  0  0  0
   21.6859   -0.5999  -11.0762 C   0  0  0  0  0  0  0  0  0  0  0  0
   21.1280    0.5742  -10.6273 C   0  0  0  0  0  0  0  0  0  0  0  0
   19.7765    0.6889  -10.3863 C   0  0  0  0  0  0  0  0  0  0  0  0
   18.9184   -0.3711  -10.5840 C   0  0  0  0  0  0  0  0  0  0  0  0
   19.4636   -1.5575  -11.0350 C   0  0  0  0  0  0  0  0  0  0  0  0
   18.6125   -2.6087  -11.2313 F   0  0  0  0  0  0  0  0  0  0  0  0
   20.8198   -1.6619  -11.2741 C   0  0  0  0  0  0  0  0  0  0  0  0
   23.8966   -0.5086   -9.0213 C   0  0  0  0  0  0  0  0  0  0  0  0
   24.8768   -0.2339   -8.0998 C   0  0  0  0  0  0  0  0  0  0  0  0
   26.1409    0.1252   -8.5109 C   0  0  0  0  0  0  0  0  0  0  0  0
   27.2927    0.4484   -7.8932 N   0  0  0  0  0  0  0  0  0  0  0  0
   28.1893    0.7050   -8.8020 O   0  0  0  0  0  0  0  0  0  0  0  0
   27.6716    0.5628   -9.9761 N   0  0  0  0  0  0  0  0  0  0  0  0
   26.3856    0.1989   -9.8566 C   0  0  0  0  0  0  0  0  0  0  0  0
  1  2  2  0
  2  3  1  0
  2  4  1  0
  4  5  2  0
  5  6  1  0
  6  7  1  0
  7  8  2  0
  8  9  1  0
  9 10  2  0
 10 11  1  0
 11 12  1  0
 11 13  2  0
  5 14  1  0
 14 15  2  0
 15 16  1  0
 16 17  2  0
 17 18  1  0
 18 19  1  0
 19 20  2  0
 20  4  1  0
 13  7  1  0
 20 16  1  0
M  CHG  2   2   1   3  -1
M  END
$$$$
