_rank2
     RDKit          3D

 20 22  0  0  0  0  0  0  0  0999 V2000
   25.1241   -0.0706  -13.0632 O   0  0  0  0  0  0  0  0  0  0  0  0
   25.9446   -0.0783  -12.1553 N   0  0  0  0  0  4  0  0  0  0  0  0
   27.2798   -0.0668  -12.4420 O   0  0  0  0  0  1  0  0  0  0  0  0
   25.5478   -0.1211  -10.7982 C   0  0  0  0  0  0  0  0  0  0  0  0
   24.2261   -0.2258  -10.4361 C   0  0  0  0  0  0  0  0  0  0  0  0
   23.1696   -0.3023  -11.3720 N   0  0  0  0  0  0  0  0  0  0  0  0
   21.8186   -0.5714  -11.1157 C   0  0  0  0  0  0  0  0  0  0  0  0
   21.3043   -1.8351  -11.2881 C   0  0  0  0  0  0  0  0  0  0  0  0
   19.9783   -2.1176  -11.0434 C   0  0  0  0  0  0  0  0  0  0  0  0
   19.1031   -1.1438  -10.6135 C   0  0  0  0  0  0  0  0  0  0  0  0
   19.6048    0.1309  -10.4353 C   0  0  0  0  0  0  0  0  0  0  0  0
   18.7369    1.0966  -10.0087 F   0  0  0  0  0  0  0  0  0  0  0  0
   20.9358    0.4035  -10.6830 C   0  0  0  0  0  0  0  0  0  0  0  0
   23.9614   -0.2144   -9.0588 C   0  0  0  0  0  0  0  0  0  0  0  0
   24.9506   -0.1061   -8.1127 C   0  0  0  0  0  0  0  0  0  0  0  0
   26.2705   -0.0026   -8.4909 C   0  0  0  0  0  0  0  0  0  0  0  0
   27.4454    0.1133   -7.8440 N   0  0  0  0  0  0  0  0  0  0  0  0
   28.3988    0.1728   -8.7291 O   0  0  0  0  0  0  0  0  0  0  0  0
   27.8955    0.1007   -9.9158 N   0  0  0  0  0  0  0  0  0  0  0  0
   26.5610   -0.0108   -9.8296 C   0  0  0  0  0  0  0  0  0  0  0  0
  1  2  2  0
  2  3  1  0
  2  4  1  0
  4  5  2  0
  5  6  1  0
  6  7  1  0
  7  8  2  0
  8  9  1  0
  9 10  2  0
 10 11  1  0
 11 12  1  0
 11 13  2  0
  5 14  1  0
 14 15  2  0
 15 16  1  0
 16 17  2  0
 17 18  1  0
 18 19  1  0
 19 20  2  0
 20  4  1  0
 13  7  1  0
 20 16  1  0
M  CHG  2   2   1   3  -1
M  END
$$$$
