_rank17
     RDKit          3D

 21 23  0  0  0  0  0  0  0  0999 V2000
   25.1548   -0.6748  -13.0936 O   0  0  0  0  0  0  0  0  0  0  0  0
   25.8396   -0.3108  -12.1253 N   0  0  0  0  0  4  0  0  0  0  0  0
   27.1480    0.0586  -12.4642 O   0  0  0  0  0  1  0  0  0  0  0  0
   25.4369   -0.3242  -10.7671 C   0  0  0  0  0  0  0  0  0  0  0  0
   24.2801   -0.7811  -10.2410 C   0  0  0  0  0  0  0  0  0  0  0  0
   23.2251   -1.3549  -10.9477 N   0  0  0  0  0  0  0  0  0  0  0  0
   21.8617   -1.0379  -11.0596 C   0  0  0  0  0  0  0  0  0  0  0  0
   20.9986   -1.4485  -12.0205 C   0  0  0  0  0  0  0  0  0  0  0  0
   19.6318   -1.1110  -12.0342 C   0  0  0  0  0  0  0  0  0  0  0  0
   18.8924   -1.5944  -13.0546 F   0  0  0  0  0  0  0  0  0  0  0  0
   19.1306   -0.3326  -11.0404 C   0  0  0  0  0  0  0  0  0  0  0  0
   19.9641    0.1221  -10.0253 C   0  0  0  0  0  0  0  0  0  0  0  0
   19.2433    1.1186   -8.7746 Cl  0  0  0  0  0  0  0  0  0  0  0  0
   21.2789   -0.2293  -10.0520 C   0  0  0  0  0  0  0  0  0  0  0  0
   24.0201   -0.6082   -8.8382 C   0  0  0  0  0  0  0  0  0  0  0  0
   24.8977    0.0008   -8.0077 C   0  0  0  0  0  0  0  0  0  0  0  0
   26.0741    0.4617   -8.5503 C   0  0  0  0  0  0  0  0  0  0  0  0
   27.1311    1.0908   -8.0013 N   0  0  0  0  0  0  0  0  0  0  0  0
   27.9990    1.3104   -8.9483 O   0  0  0  0  0  0  0  0  0  0  0  0
   27.5557    0.8525  -10.0890 N   0  0  0  0  0  0  0  0  0  0  0  0
   26.3444    0.3108   -9.8784 C   0  0  0  0  0  0  0  0  0  0  0  0
  1  2  2  0
  2  3  1  0
  2  4  1  0
  4  5  2  0
  5  6  1  0
  6  7  1  0
  7  8  2  0
  8  9  1  0
  9 10  1  0
  9 11  2  0
 11 12  1  0
 12 13  1  0
 12 14  2  0
  5 15  1  0
 15 16  2  0
 16 17  1  0
 17 18  2  0
 18 19  1  0
 19 20  1  0
 20 21  2  0
 21  4  1  0
 14  7  1  0
 21 17  1  0
M  CHG  2   2   1   3  -1
M  END
$$$$
