_rank9
     RDKit          3D

 20 22  0  0  0  0  0  0  0  0999 V2000
   27.1534    0.3626  -12.2338 O   0  0  0  0  0  0  0  0  0  0  0  0
   25.9790    0.2620  -11.9047 N   0  0  0  0  0  4  0  0  0  0  0  0
   24.9926    0.4419  -12.8320 O   0  0  0  0  0  1  0  0  0  0  0  0
   25.6049   -0.0177  -10.5695 C   0  0  0  0  0  0  0  0  0  0  0  0
   24.3053   -0.3093  -10.2304 C   0  0  0  0  0  0  0  0  0  0  0  0
   23.2511   -0.3576  -11.1707 N   0  0  0  0  0  0  0  0  0  0  0  0
   21.8943   -0.6031  -10.9215 C   0  0  0  0  0  0  0  0  0  0  0  0
   21.4944   -1.7164  -10.2200 C   0  0  0  0  0  0  0  0  0  0  0  0
   20.1651   -1.9753   -9.9675 C   0  0  0  0  0  0  0  0  0  0  0  0
   19.1713   -1.1283  -10.4081 C   0  0  0  0  0  0  0  0  0  0  0  0
   19.5570   -0.0054  -11.1142 C   0  0  0  0  0  0  0  0  0  0  0  0
   18.5715    0.8348  -11.5509 F   0  0  0  0  0  0  0  0  0  0  0  0
   20.8924    0.2453  -11.3615 C   0  0  0  0  0  0  0  0  0  0  0  0
   24.0575   -0.5251   -8.8670 C   0  0  0  0  0  0  0  0  0  0  0  0
   25.0417   -0.4539   -7.9121 C   0  0  0  0  0  0  0  0  0  0  0  0
   26.3394   -0.1614   -8.2674 C   0  0  0  0  0  0  0  0  0  0  0  0
   27.5041   -0.0203   -7.6069 N   0  0  0  0  0  0  0  0  0  0  0  0
   28.4356    0.2647   -8.4711 O   0  0  0  0  0  0  0  0  0  0  0  0
   27.9281    0.3141   -9.6572 N   0  0  0  0  0  0  0  0  0  0  0  0
   26.6132    0.0545   -9.5921 C   0  0  0  0  0  0  0  0  0  0  0  0
  1  2  2  0
  2  3  1  0
  2  4  1  0
  4  5  2  0
  5  6  1  0
  6  7  1  0
  7  8  2  0
  8  9  1  0
  9 10  2  0
 10 11  1  0
 11 12  1  0
 11 13  2  0
  5 14  1  0
 14 15  2  0
 15 16  1  0
 16 17  2  0
 17 18  1  0
 18 19  1  0
 19 20  2  0
 20  4  1  0
 13  7  1  0
 20 16  1  0
M  CHG  2   2   1   3  -1
M  END
$$$$
