_rank20
     RDKit          3D

 20 22  0  0  0  0  0  0  0  0999 V2000
   23.4859   -1.4160  -13.5334 O   0  0  0  0  0  0  0  0  0  0  0  0
   22.3665   -1.1950  -13.0908 N   0  0  0  0  0  4  0  0  0  0  0  0
   21.3372   -0.9193  -13.9450 O   0  0  0  0  0  1  0  0  0  0  0  0
   22.1061   -1.1951  -11.7004 C   0  0  0  0  0  0  0  0  0  0  0  0
   23.1213   -1.2621  -10.7764 C   0  0  0  0  0  0  0  0  0  0  0  0
   24.4880   -1.3315  -11.1299 N   0  0  0  0  0  0  0  0  0  0  0  0
   25.5860   -0.8677  -10.3933 C   0  0  0  0  0  0  0  0  0  0  0  0
   25.5341   -0.7879   -9.0214 C   0  0  0  0  0  0  0  0  0  0  0  0
   26.6027   -0.3323   -8.2809 C   0  0  0  0  0  0  0  0  0  0  0  0
   27.7765    0.0666   -8.8826 C   0  0  0  0  0  0  0  0  0  0  0  0
   27.8443   -0.0078  -10.2603 C   0  0  0  0  0  0  0  0  0  0  0  0
   29.0086    0.3875  -10.8571 F   0  0  0  0  0  0  0  0  0  0  0  0
   26.7675   -0.4666  -10.9934 C   0  0  0  0  0  0  0  0  0  0  0  0
   22.7284   -1.2984   -9.4305 C   0  0  0  0  0  0  0  0  0  0  0  0
   21.4126   -1.2693   -9.0392 C   0  0  0  0  0  0  0  0  0  0  0  0
   20.4065   -1.2014   -9.9768 C   0  0  0  0  0  0  0  0  0  0  0  0
   19.0615   -1.1574   -9.9362 N   0  0  0  0  0  0  0  0  0  0  0  0
   18.6144   -1.0976  -11.1578 O   0  0  0  0  0  0  0  0  0  0  0  0
   19.6061   -1.1006  -11.9844 N   0  0  0  0  0  0  0  0  0  0  0  0
   20.7586   -1.1645  -11.3001 C   0  0  0  0  0  0  0  0  0  0  0  0
  1  2  2  0
  2  3  1  0
  2  4  1  0
  4  5  2  0
  5  6  1  0
  6  7  1  0
  7  8  2  0
  8  9  1  0
  9 10  2  0
 10 11  1  0
 11 12  1  0
 11 13  2  0
  5 14  1  0
 14 15  2  0
 15 16  1  0
 16 17  2  0
 17 18  1  0
 18 19  1  0
 19 20  2  0
 20  4  1  0
 13  7  1  0
 20 16  1  0
M  CHG  2   2   1   3  -1
M  END
$$$$
