_rank15
     RDKit          3D

 20 22  0  0  0  0  0  0  0  0999 V2000
   25.3377    0.4927  -13.0054 O   0  0  0  0  0  0  0  0  0  0  0  0
   26.1478    0.2442  -12.1225 N   0  0  0  0  0  4  0  0  0  0  0  0
   27.4760    0.1426  -12.4240 O   0  0  0  0  0  1  0  0  0  0  0  0
   25.7434    0.0345  -10.7833 C   0  0  0  0  0  0  0  0  0  0  0  0
   24.4454   -0.2848  -10.4634 C   0  0  0  0  0  0  0  0  0  0  0  0
   23.4230   -0.4322  -11.4281 N   0  0  0  0  0  0  0  0  0  0  0  0
   22.0999   -0.8413  -11.2154 C   0  0  0  0  0  0  0  0  0  0  0  0
   21.6184   -1.0444   -9.9433 C   0  0  0  0  0  0  0  0  0  0  0  0
   20.3214   -1.4489   -9.7151 C   0  0  0  0  0  0  0  0  0  0  0  0
   19.4438   -1.6699  -10.7544 C   0  0  0  0  0  0  0  0  0  0  0  0
   19.9125   -1.4699  -12.0384 C   0  0  0  0  0  0  0  0  0  0  0  0
   19.0420   -1.6888  -13.0691 F   0  0  0  0  0  0  0  0  0  0  0  0
   21.2144   -1.0639  -12.2563 C   0  0  0  0  0  0  0  0  0  0  0  0
   24.1639   -0.4240   -9.0965 C   0  0  0  0  0  0  0  0  0  0  0  0
   25.1150   -0.2556   -8.1206 C   0  0  0  0  0  0  0  0  0  0  0  0
   26.4116    0.0636   -8.4569 C   0  0  0  0  0  0  0  0  0  0  0  0
   27.5495    0.2902   -7.7740 N   0  0  0  0  0  0  0  0  0  0  0  0
   28.4962    0.5559   -8.6279 O   0  0  0  0  0  0  0  0  0  0  0  0
   28.0238    0.5115   -9.8286 N   0  0  0  0  0  0  0  0  0  0  0  0
   26.7179    0.2064   -9.7844 C   0  0  0  0  0  0  0  0  0  0  0  0
  1  2  2  0
  2  3  1  0
  2  4  1  0
  4  5  2  0
  5  6  1  0
  6  7  1  0
  7  8  2  0
  8  9  1  0
  9 10  2  0
 10 11  1  0
 11 12  1  0
 11 13  2  0
  5 14  1  0
 14 15  2  0
 15 16  1  0
 16 17  2  0
 17 18  1  0
 18 19  1  0
 19 20  2  0
 20  4  1  0
 13  7  1  0
 20 16  1  0
M  CHG  2   2   1   3  -1
M  END
$$$$
