_rank20
     RDKit          3D

 21 23  0  0  0  0  0  0  0  0999 V2000
   22.1568   -1.8215  -13.2987 O   0  0  0  0  0  0  0  0  0  0  0  0
   21.3243   -1.1875  -12.6323 N   0  0  0  0  0  4  0  0  0  0  0  0
   20.1118   -0.9702  -13.2999 O   0  0  0  0  0  1  0  0  0  0  0  0
   21.5362   -0.6271  -11.3485 C   0  0  0  0  0  0  0  0  0  0  0  0
   22.6467   -0.6850  -10.5822 C   0  0  0  0  0  0  0  0  0  0  0  0
   23.8430   -1.3178  -10.9141 N   0  0  0  0  0  0  0  0  0  0  0  0
   25.1918   -0.9561  -10.7661 C   0  0  0  0  0  0  0  0  0  0  0  0
   25.9826   -0.3409  -11.6788 C   0  0  0  0  0  0  0  0  0  0  0  0
   27.3206    0.0203  -11.4310 C   0  0  0  0  0  0  0  0  0  0  0  0
   27.9859    0.6298  -12.4349 F   0  0  0  0  0  0  0  0  0  0  0  0
   27.8683   -0.2538  -10.2187 C   0  0  0  0  0  0  0  0  0  0  0  0
   27.1101   -0.8843   -9.2393 C   0  0  0  0  0  0  0  0  0  0  0  0
   27.8848   -1.2008   -7.6977 Cl  0  0  0  0  0  0  0  0  0  0  0  0
   25.8203   -1.2150   -9.5226 C   0  0  0  0  0  0  0  0  0  0  0  0
   22.6238   -0.1344   -9.2549 C   0  0  0  0  0  0  0  0  0  0  0  0
   21.5216    0.4498   -8.7311 C   0  0  0  0  0  0  0  0  0  0  0  0
   20.3953    0.5066   -9.5179 C   0  0  0  0  0  0  0  0  0  0  0  0
   19.1688    1.0169   -9.2956 N   0  0  0  0  0  0  0  0  0  0  0  0
   18.4560    0.8209  -10.3688 O   0  0  0  0  0  0  0  0  0  0  0  0
   19.1626    0.2067  -11.2803 N   0  0  0  0  0  0  0  0  0  0  0  0
   20.3909   -0.0091  -10.7803 C   0  0  0  0  0  0  0  0  0  0  0  0
  1  2  2  0
  2  3  1  0
  2  4  1  0
  4  5  2  0
  5  6  1  0
  6  7  1  0
  7  8  2  0
  8  9  1  0
  9 10  1  0
  9 11  2  0
 11 12  1  0
 12 13  1  0
 12 14  2  0
  5 15  1  0
 15 16  2  0
 16 17  1  0
 17 18  2  0
 18 19  1  0
 19 20  1  0
 20 21  2  0
 21  4  1  0
 14  7  1  0
 21 17  1  0
M  CHG  2   2   1   3  -1
M  END
$$$$
