_rank11
     RDKit          3D

 20 22  0  0  0  0  0  0  0  0999 V2000
   25.3034    0.4575  -12.7834 O   0  0  0  0  0  0  0  0  0  0  0  0
   25.9433    0.6788  -11.7640 N   0  0  0  0  0  4  0  0  0  0  0  0
   27.0784    1.4360  -11.8216 O   0  0  0  0  0  1  0  0  0  0  0  0
   25.5500    0.1492  -10.5126 C   0  0  0  0  0  0  0  0  0  0  0  0
   24.2300   -0.0891  -10.2128 C   0  0  0  0  0  0  0  0  0  0  0  0
   23.1720    0.1665  -11.1145 N   0  0  0  0  0  0  0  0  0  0  0  0
   21.8339   -0.2325  -10.9972 C   0  0  0  0  0  0  0  0  0  0  0  0
   20.8148    0.5657  -11.4615 C   0  0  0  0  0  0  0  0  0  0  0  0
   19.4936    0.1909  -11.3526 C   0  0  0  0  0  0  0  0  0  0  0  0
   19.1309   -1.0047  -10.7711 C   0  0  0  0  0  0  0  0  0  0  0  0
   20.1434   -1.8177  -10.2999 C   0  0  0  0  0  0  0  0  0  0  0  0
   19.7837   -3.0036   -9.7234 F   0  0  0  0  0  0  0  0  0  0  0  0
   21.4648   -1.4330  -10.4144 C   0  0  0  0  0  0  0  0  0  0  0  0
   23.9686   -0.5742   -8.9232 C   0  0  0  0  0  0  0  0  0  0  0  0
   24.9592   -0.8044   -8.0005 C   0  0  0  0  0  0  0  0  0  0  0  0
   26.2773   -0.5615   -8.3159 C   0  0  0  0  0  0  0  0  0  0  0  0
   27.4529   -0.6759   -7.6698 N   0  0  0  0  0  0  0  0  0  0  0  0
   28.4036   -0.2954   -8.4743 O   0  0  0  0  0  0  0  0  0  0  0  0
   27.8981    0.0587   -9.6082 N   0  0  0  0  0  0  0  0  0  0  0  0
   26.5647   -0.0870   -9.5684 C   0  0  0  0  0  0  0  0  0  0  0  0
  1  2  2  0
  2  3  1  0
  2  4  1  0
  4  5  2  0
  5  6  1  0
  6  7  1  0
  7  8  2  0
  8  9  1  0
  9 10  2  0
 10 11  1  0
 11 12  1  0
 11 13  2  0
  5 14  1  0
 14 15  2  0
 15 16  1  0
 16 17  2  0
 17 18  1  0
 18 19  1  0
 19 20  2  0
 20  4  1  0
 13  7  1  0
 20 16  1  0
M  CHG  2   2   1   3  -1
M  END
$$$$
