_rank12
     RDKit          3D

 21 23  0  0  0  0  0  0  0  0999 V2000
   26.7022   -0.6663  -12.7193 O   0  0  0  0  0  0  0  0  0  0  0  0
   25.7531   -0.1451  -12.1137 N   0  0  0  0  0  4  0  0  0  0  0  0
   24.9444    0.6665  -12.9201 O   0  0  0  0  0  1  0  0  0  0  0  0
   25.4969   -0.2418  -10.7238 C   0  0  0  0  0  0  0  0  0  0  0  0
   24.4481   -0.8245  -10.1039 C   0  0  0  0  0  0  0  0  0  0  0  0
   23.3825   -1.4732  -10.7248 N   0  0  0  0  0  0  0  0  0  0  0  0
   22.0202   -1.1617  -10.8634 C   0  0  0  0  0  0  0  0  0  0  0  0
   21.0652   -1.9047  -11.4739 C   0  0  0  0  0  0  0  0  0  0  0  0
   19.7090   -1.5314  -11.5336 C   0  0  0  0  0  0  0  0  0  0  0  0
   18.8703   -2.3729  -12.1740 F   0  0  0  0  0  0  0  0  0  0  0  0
   19.3152   -0.3673  -10.9551 C   0  0  0  0  0  0  0  0  0  0  0  0
   20.2465    0.4408  -10.3137 C   0  0  0  0  0  0  0  0  0  0  0  0
   19.6615    1.9259   -9.5863 Cl  0  0  0  0  0  0  0  0  0  0  0  0
   21.5470    0.0400  -10.2799 C   0  0  0  0  0  0  0  0  0  0  0  0
   24.3207   -0.7236   -8.6760 C   0  0  0  0  0  0  0  0  0  0  0  0
   25.2202   -0.0611   -7.9128 C   0  0  0  0  0  0  0  0  0  0  0  0
   26.2864    0.5280   -8.5507 C   0  0  0  0  0  0  0  0  0  0  0  0
   27.3325    1.2371   -8.0845 N   0  0  0  0  0  0  0  0  0  0  0  0
   28.0732    1.5699   -9.1037 O   0  0  0  0  0  0  0  0  0  0  0  0
   27.5576    1.1095  -10.2126 N   0  0  0  0  0  0  0  0  0  0  0  0
   26.4297    0.4476   -9.9045 C   0  0  0  0  0  0  0  0  0  0  0  0
  1  2  2  0
  2  3  1  0
  2  4  1  0
  4  5  2  0
  5  6  1  0
  6  7  1  0
  7  8  2  0
  8  9  1  0
  9 10  1  0
  9 11  2  0
 11 12  1  0
 12 13  1  0
 12 14  2  0
  5 15  1  0
 15 16  2  0
 16 17  1  0
 17 18  2  0
 18 19  1  0
 19 20  1  0
 20 21  2  0
 21  4  1  0
 14  7  1  0
 21 17  1  0
M  CHG  2   2   1   3  -1
M  END
$$$$
