_rank1
     RDKit          3D

 20 22  0  0  0  0  0  0  0  0999 V2000
   25.0963    0.3779  -12.9695 O   0  0  0  0  0  0  0  0  0  0  0  0
   25.9341    0.3350  -12.0786 N   0  0  0  0  0  4  0  0  0  0  0  0
   27.2586    0.4772  -12.3800 O   0  0  0  0  0  1  0  0  0  0  0  0
   25.5702    0.1180  -10.7290 C   0  0  0  0  0  0  0  0  0  0  0  0
   24.2732   -0.1566  -10.3668 C   0  0  0  0  0  0  0  0  0  0  0  0
   23.2117   -0.2479  -11.2956 N   0  0  0  0  0  0  0  0  0  0  0  0
   21.8482   -0.4174  -11.0212 C   0  0  0  0  0  0  0  0  0  0  0  0
   21.3583   -1.6291  -10.5933 C   0  0  0  0  0  0  0  0  0  0  0  0
   20.0207   -1.8148  -10.3210 C   0  0  0  0  0  0  0  0  0  0  0  0
   19.1086   -0.7919  -10.4658 C   0  0  0  0  0  0  0  0  0  0  0  0
   19.5853    0.4316  -10.8948 C   0  0  0  0  0  0  0  0  0  0  0  0
   18.6809    1.4462  -11.0381 F   0  0  0  0  0  0  0  0  0  0  0  0
   20.9283    0.6075  -11.1645 C   0  0  0  0  0  0  0  0  0  0  0  0
   24.0357   -0.3084   -8.9929 C   0  0  0  0  0  0  0  0  0  0  0  0
   25.0272   -0.1935   -8.0500 C   0  0  0  0  0  0  0  0  0  0  0  0
   26.3223    0.0813   -8.4284 C   0  0  0  0  0  0  0  0  0  0  0  0
   27.4921    0.2522   -7.7842 N   0  0  0  0  0  0  0  0  0  0  0  0
   28.4170    0.4961   -8.6678 O   0  0  0  0  0  0  0  0  0  0  0  0
   27.9005    0.4905   -9.8510 N   0  0  0  0  0  0  0  0  0  0  0  0
   26.5860    0.2351   -9.7638 C   0  0  0  0  0  0  0  0  0  0  0  0
  1  2  2  0
  2  3  1  0
  2  4  1  0
  4  5  2  0
  5  6  1  0
  6  7  1  0
  7  8  2  0
  8  9  1  0
  9 10  2  0
 10 11  1  0
 11 12  1  0
 11 13  2  0
  5 14  1  0
 14 15  2  0
 15 16  1  0
 16 17  2  0
 17 18  1  0
 18 19  1  0
 19 20  2  0
 20  4  1  0
 13  7  1  0
 20 16  1  0
M  CHG  2   2   1   3  -1
M  END
$$$$
