_rank20
     RDKit          3D

 17 18  0  0  0  0  0  0  0  0999 V2000
   18.9539   -0.6391  -14.3147 C   0  0  0  0  0  0  0  0  0  0  0  0
   18.7825   -1.5999  -13.2512 N   0  0  0  0  0  0  0  0  0  0  0  0
   20.0553   -2.2266  -13.0135 C   0  0  2  0  0  0  0  0  0  0  0  0
   19.9518   -3.7388  -12.9725 C   0  0  0  0  0  0  0  0  0  0  0  0
   21.3253   -4.1004  -12.4349 C   0  0  0  0  0  0  0  0  0  0  0  0
   21.7604   -2.9167  -11.5922 C   0  0  0  0  0  0  0  0  0  0  0  0
   20.5214   -1.9979  -11.5596 C   0  0  1  0  0  0  0  0  0  0  0  0
   20.8404   -0.6886  -11.3111 O   0  0  0  0  0  0  0  0  0  0  0  0
   21.1205   -0.1889  -10.0544 C   0  0  0  0  0  0  0  0  0  0  0  0
   22.3577   -0.4364   -9.4538 C   0  0  0  0  0  0  0  0  0  0  0  0
   22.6534    0.0514   -8.2073 C   0  0  0  0  0  0  0  0  0  0  0  0
   23.8666   -0.2070   -7.6502 F   0  0  0  0  0  0  0  0  0  0  0  0
   21.7622    0.8058   -7.4782 C   0  0  0  0  0  0  0  0  0  0  0  0
   20.5410    1.0559   -8.0591 C   0  0  0  0  0  0  0  0  0  0  0  0
   19.5977    1.8367   -7.3231 C   0  0  0  0  0  0  0  0  0  0  0  0
   18.8193    2.4664   -6.7408 N   0  0  0  0  0  0  0  0  0  0  0  0
   20.2445    0.5651   -9.3124 C   0  0  0  0  0  0  0  0  0  0  0  0
  1  2  1  1
  3  2  1  1
  3  4  1  0
  4  5  1  6
  5  6  1  1
  6  7  1  1
  7  8  1  6
  8  9  1  0
  9 10  2  0
 10 11  1  0
 11 12  1  0
 11 13  2  0
 13 14  1  0
 14 15  1  0
 15 16  3  0
 14 17  2  0
  7  3  1  0
 17  9  1  0
M  END
$$$$
