_rank16
     RDKit          3D

 17 18  0  0  0  0  0  0  0  0999 V2000
   22.2972   -2.8244  -11.7088 C   0  0  0  0  0  0  0  0  0  0  0  0
   23.5307   -2.2702  -11.2040 N   0  0  0  0  0  0  0  0  0  0  0  0
   23.9401   -1.2192  -12.0968 C   0  0  2  0  0  0  0  0  0  0  0  0
   25.4485   -1.0830  -12.1695 C   0  0  0  0  0  0  0  0  0  0  0  0
   25.5766    0.2327  -12.9170 C   0  0  0  0  0  0  0  0  0  0  0  0
   24.3281    1.0227  -12.5733 C   0  0  0  0  0  0  0  0  0  0  0  0
   23.6219    0.1686  -11.5000 C   0  0  1  0  0  0  0  0  0  0  0  0
   22.2754    0.4134  -11.4311 O   0  0  0  0  0  0  0  0  0  0  0  0
   21.5912    0.6313  -10.2514 C   0  0  0  0  0  0  0  0  0  0  0  0
   20.3214    1.2145  -10.2668 C   0  0  0  0  0  0  0  0  0  0  0  0
   19.6274    1.4385   -9.1060 C   0  0  0  0  0  0  0  0  0  0  0  0
   18.3936    2.0079   -9.1548 F   0  0  0  0  0  0  0  0  0  0  0  0
   20.1308    1.1075   -7.8683 C   0  0  0  0  0  0  0  0  0  0  0  0
   21.3800    0.5327   -7.8405 C   0  0  0  0  0  0  0  0  0  0  0  0
   21.9254    0.1797   -6.5681 C   0  0  0  0  0  0  0  0  0  0  0  0
   22.3490   -0.1103   -5.5299 N   0  0  0  0  0  0  0  0  0  0  0  0
   22.0770    0.3079   -9.0081 C   0  0  0  0  0  0  0  0  0  0  0  0
  1  2  1  1
  3  2  1  1
  3  4  1  0
  4  5  1  6
  5  6  1  1
  6  7  1  1
  7  8  1  6
  8  9  1  0
  9 10  2  0
 10 11  1  0
 11 12  1  0
 11 13  2  0
 13 14  1  0
 14 15  1  0
 15 16  3  0
 14 17  2  0
  7  3  1  0
 17  9  1  0
M  END
$$$$
