_rank11
     RDKit          3D

 17 18  0  0  0  0  0  0  0  0999 V2000
   26.3866    4.4156  -12.1561 C   0  0  0  0  0  0  0  0  0  0  0  0
   25.5905    3.3458  -12.7088 N   0  0  0  0  0  0  0  0  0  0  0  0
   26.4441    2.1993  -12.8712 C   0  0  2  0  0  0  0  0  0  0  0  0
   26.2099    1.4917  -14.1916 C   0  0  0  0  0  0  0  0  0  0  0  0
   26.9971    0.2124  -13.9689 C   0  0  0  0  0  0  0  0  0  0  0  0
   26.9723   -0.0290  -12.4716 C   0  0  0  0  0  0  0  0  0  0  0  0
   26.0169    1.0539  -11.9283 C   0  0  1  0  0  0  0  0  0  0  0  0
   26.2457    1.3475  -10.6095 O   0  0  0  0  0  0  0  0  0  0  0  0
   26.1808    0.4175   -9.5906 C   0  0  0  0  0  0  0  0  0  0  0  0
   27.3381    0.0324   -8.9088 C   0  0  0  0  0  0  0  0  0  0  0  0
   27.2930   -0.8892   -7.8949 C   0  0  0  0  0  0  0  0  0  0  0  0
   28.4372   -1.2428   -7.2509 F   0  0  0  0  0  0  0  0  0  0  0  0
   26.1203   -1.4855   -7.4897 C   0  0  0  0  0  0  0  0  0  0  0  0
   24.9744   -1.1143   -8.1536 C   0  0  0  0  0  0  0  0  0  0  0  0
   23.7436   -1.7187   -7.7522 C   0  0  0  0  0  0  0  0  0  0  0  0
   22.7372   -2.2017   -7.4437 N   0  0  0  0  0  0  0  0  0  0  0  0
   25.0208   -0.1877   -9.1728 C   0  0  0  0  0  0  0  0  0  0  0  0
  1  2  1  1
  3  2  1  6
  3  4  1  0
  4  5  1  6
  5  6  1  1
  6  7  1  1
  7  8  1  1
  8  9  1  0
  9 10  2  0
 10 11  1  0
 11 12  1  0
 11 13  2  0
 13 14  1  0
 14 15  1  0
 15 16  3  0
 14 17  2  0
  7  3  1  0
 17  9  1  0
M  END
$$$$
