_rank12
     RDKit          3D

 17 18  0  0  0  0  0  0  0  0999 V2000
   21.8382   -2.7777   -9.6379 C   0  0  0  0  0  0  0  0  0  0  0  0
   20.6591   -1.9895   -9.9060 N   0  0  0  0  0  0  0  0  0  0  0  0
   21.0440   -0.8952  -10.7568 C   0  0  2  0  0  0  0  0  0  0  0  0
   20.5247   -1.0584  -12.1720 C   0  0  0  0  0  0  0  0  0  0  0  0
   21.2982    0.0377  -12.8837 C   0  0  0  0  0  0  0  0  0  0  0  0
   22.5888    0.2013  -12.1039 C   0  0  0  0  0  0  0  0  0  0  0  0
   22.5550   -0.9429  -11.0694 C   0  0  1  0  0  0  0  0  0  0  0  0
   23.3269   -0.6824   -9.9675 O   0  0  0  0  0  0  0  0  0  0  0  0
   24.7072   -0.6410   -9.9859 C   0  0  0  0  0  0  0  0  0  0  0  0
   25.4119   -1.0282  -11.1288 C   0  0  0  0  0  0  0  0  0  0  0  0
   26.7818   -0.9937  -11.1654 C   0  0  0  0  0  0  0  0  0  0  0  0
   27.4381   -1.3770  -12.2929 F   0  0  0  0  0  0  0  0  0  0  0  0
   27.5398   -0.5812  -10.0929 C   0  0  0  0  0  0  0  0  0  0  0  0
   26.8572   -0.1977   -8.9622 C   0  0  0  0  0  0  0  0  0  0  0  0
   27.6205    0.2349   -7.8347 C   0  0  0  0  0  0  0  0  0  0  0  0
   28.2327    0.6044   -6.9236 N   0  0  0  0  0  0  0  0  0  0  0  0
   25.4798   -0.2326   -8.9263 C   0  0  0  0  0  0  0  0  0  0  0  0
  1  2  1  1
  3  2  1  1
  3  4  1  0
  4  5  1  6
  5  6  1  1
  6  7  1  1
  7  8  1  1
  8  9  1  0
  9 10  2  0
 10 11  1  0
 11 12  1  0
 11 13  2  0
 13 14  1  0
 14 15  1  0
 15 16  3  0
 14 17  2  0
  7  3  1  0
 17  9  1  0
M  END
$$$$
