_rank18
     RDKit          3D

 17 18  0  0  0  0  0  0  0  0999 V2000
   25.5429    1.6722  -13.0903 C   0  0  0  0  0  0  0  0  0  0  0  0
   26.5056    0.6337  -13.3697 N   0  0  0  0  0  0  0  0  0  0  0  0
   27.0839    0.2201  -12.1192 C   0  0  2  0  0  0  0  0  0  0  0  0
   28.1935   -0.7959  -12.3080 C   0  0  0  0  0  0  0  0  0  0  0  0
   28.4041   -1.2523  -10.8750 C   0  0  0  0  0  0  0  0  0  0  0  0
   27.0652   -1.0704  -10.1858 C   0  0  0  0  0  0  0  0  0  0  0  0
   26.1039   -0.6688  -11.3238 C   0  0  1  0  0  0  0  0  0  0  0  0
   25.0126    0.0269  -10.8733 O   0  0  0  0  0  0  0  0  0  0  0  0
   23.8916   -0.5672  -10.3276 C   0  0  0  0  0  0  0  0  0  0  0  0
   22.9588   -1.2066  -11.1483 C   0  0  0  0  0  0  0  0  0  0  0  0
   21.8404   -1.8016  -10.6244 C   0  0  0  0  0  0  0  0  0  0  0  0
   20.9515   -2.4159  -11.4500 F   0  0  0  0  0  0  0  0  0  0  0  0
   21.5692   -1.8067   -9.2748 C   0  0  0  0  0  0  0  0  0  0  0  0
   22.4803   -1.1803   -8.4570 C   0  0  0  0  0  0  0  0  0  0  0  0
   22.2222   -1.1714   -7.0519 C   0  0  0  0  0  0  0  0  0  0  0  0
   22.0022   -1.1474   -5.9150 N   0  0  0  0  0  0  0  0  0  0  0  0
   23.6045   -0.5824   -8.9845 C   0  0  0  0  0  0  0  0  0  0  0  0
  1  2  1  1
  3  2  1  6
  3  4  1  0
  4  5  1  6
  5  6  1  1
  6  7  1  1
  7  8  1  1
  8  9  1  0
  9 10  2  0
 10 11  1  0
 11 12  1  0
 11 13  2  0
 13 14  1  0
 14 15  1  0
 15 16  3  0
 14 17  2  0
  7  3  1  0
 17  9  1  0
M  END
$$$$
