_rank14
     RDKit          3D

 17 18  0  0  0  0  0  0  0  0999 V2000
   21.2117   -1.7872   -9.1155 C   0  0  0  0  0  0  0  0  0  0  0  0
   20.8775   -2.1525  -10.4714 N   0  0  0  0  0  0  0  0  0  0  0  0
   21.2056   -1.0396  -11.3218 C   0  0  2  0  0  0  0  0  0  0  0  0
   20.8505   -1.3015  -12.7724 C   0  0  0  0  0  0  0  0  0  0  0  0
   21.5486   -0.1344  -13.4482 C   0  0  0  0  0  0  0  0  0  0  0  0
   22.7274    0.2096  -12.5577 C   0  0  0  0  0  0  0  0  0  0  0  0
   22.7343   -0.9041  -11.4900 C   0  0  1  0  0  0  0  0  0  0  0  0
   23.3573   -0.5216  -10.3310 O   0  0  0  0  0  0  0  0  0  0  0  0
   24.7230   -0.5815  -10.1344 C   0  0  0  0  0  0  0  0  0  0  0  0
   25.5515   -1.1678  -11.0949 C   0  0  0  0  0  0  0  0  0  0  0  0
   26.9090   -1.2363  -10.9170 C   0  0  0  0  0  0  0  0  0  0  0  0
   27.6879   -1.8133  -11.8705 F   0  0  0  0  0  0  0  0  0  0  0  0
   27.5336   -0.7384   -9.7958 C   0  0  0  0  0  0  0  0  0  0  0  0
   26.7284   -0.1589   -8.8433 C   0  0  0  0  0  0  0  0  0  0  0  0
   27.3519    0.3658   -7.6699 C   0  0  0  0  0  0  0  0  0  0  0  0
   27.8630    0.7724   -6.7134 N   0  0  0  0  0  0  0  0  0  0  0  0
   25.3636   -0.0905   -9.0231 C   0  0  0  0  0  0  0  0  0  0  0  0
  1  2  1  1
  3  2  1  1
  3  4  1  0
  4  5  1  6
  5  6  1  1
  6  7  1  1
  7  8  1  1
  8  9  1  0
  9 10  2  0
 10 11  1  0
 11 12  1  0
 11 13  2  0
 13 14  1  0
 14 15  1  0
 15 16  3  0
 14 17  2  0
  7  3  1  0
 17  9  1  0
M  END
$$$$
