_rank15
     RDKit          3D

 25 28  0  0  0  0  0  0  0  0999 V2000
   26.2955    2.0532   -9.6599 F   0  0  0  0  0  0  0  0  0  0  0  0
   26.5629    0.7978   -9.1846 C   0  0  0  0  0  0  0  0  0  0  0  0
   27.5373    0.7327   -8.2034 C   0  0  0  0  0  0  0  0  0  0  0  0
   28.4211    2.3010   -7.5820 Br  0  0  0  0  0  0  0  0  0  0  0  0
   27.8819   -0.4955   -7.6572 C   0  0  0  0  0  0  0  0  0  0  0  0
   27.2416   -1.6347   -8.1069 C   0  0  0  0  0  0  0  0  0  0  0  0
   26.2707   -1.5509   -9.0878 C   0  0  0  0  0  0  0  0  0  0  0  0
   25.4620   -2.9883   -9.6600 Cl  0  0  0  0  0  0  0  0  0  0  0  0
   25.9099   -0.3204   -9.6505 C   0  0  0  0  0  0  0  0  0  0  0  0
   24.8959   -0.1867  -10.6835 C   0  0  2  0  0  0  0  0  0  0  0  0
   23.5544   -0.6017  -10.0658 C   0  0  0  0  0  0  0  0  0  0  0  0
   22.5161   -0.2653  -11.1308 C   0  0  2  0  0  0  0  0  0  0  0  0
   21.1377   -0.3094  -10.6527 C   0  0  0  0  0  0  0  0  0  0  0  0
   20.6508    0.7730   -9.9170 C   0  0  0  0  0  0  0  0  0  0  0  0
   19.3719    0.8241   -9.4334 C   0  0  0  0  0  0  0  0  0  0  0  0
   18.5191   -0.2278   -9.6740 C   0  0  0  0  0  0  0  0  0  0  0  0
   18.9950   -1.3113  -10.4060 C   0  0  0  0  0  0  0  0  0  0  0  0
   17.8583   -2.7733  -10.7611 Br  0  0  0  0  0  0  0  0  0  0  0  0
   20.2885   -1.3412  -10.8840 C   0  0  0  0  0  0  0  0  0  0  0  0
   22.7891   -1.1662  -12.2276 N   0  0  0  0  0  0  0  0  0  0  0  0
   24.1363   -1.3082  -12.6551 C   0  0  0  0  0  0  0  0  0  0  0  0
   24.6769   -1.8632  -13.7441 N   0  0  0  0  0  0  0  0  0  0  0  0
   26.0129   -1.7492  -13.7024 N   0  0  0  0  0  0  0  0  0  0  0  0
   26.2684   -1.1129  -12.5639 N   0  0  0  0  0  0  0  0  0  0  0  0
   25.1691   -0.8332  -11.9110 N   0  0  0  0  0  0  0  0  0  0  0  0
  1  2  1  0
  2  3  2  0
  3  4  1  0
  3  5  1  0
  5  6  2  0
  6  7  1  0
  7  8  1  0
  7  9  2  0
 10  9  1  1
 11 10  1  6
 11 12  1  0
 12 13  1  1
 13 14  2  0
 14 15  1  0
 15 16  2  0
 16 17  1  0
 17 18  1  0
 17 19  2  0
 12 20  1  0
 20 21  1  0
 21 22  2  0
 22 23  1  0
 23 24  2  0
 24 25  1  0
  9  2  1  0
 25 10  1  0
 19 13  1  0
 25 21  1  0
M  END
$$$$
