_rank1
     RDKit          3D

 25 28  0  0  0  0  0  0  0  0999 V2000
   26.2701   -1.9445   -9.8616 F   0  0  0  0  0  0  0  0  0  0  0  0
   26.7046   -0.8709   -9.1323 C   0  0  0  0  0  0  0  0  0  0  0  0
   27.6463   -1.1594   -8.1595 C   0  0  0  0  0  0  0  0  0  0  0  0
   28.2714   -2.9373   -7.8850 Br  0  0  0  0  0  0  0  0  0  0  0  0
   28.1492   -0.1387   -7.3652 C   0  0  0  0  0  0  0  0  0  0  0  0
   27.6967    1.1521   -7.5630 C   0  0  0  0  0  0  0  0  0  0  0  0
   26.7556    1.4220   -8.5394 C   0  0  0  0  0  0  0  0  0  0  0  0
   26.1800    3.0509   -8.7898 Cl  0  0  0  0  0  0  0  0  0  0  0  0
   26.2369    0.4050   -9.3502 C   0  0  0  0  0  0  0  0  0  0  0  0
   25.2466    0.6439  -10.3873 C   0  0  2  0  0  0  0  0  0  0  0  0
   24.0358   -0.2461  -10.0789 C   0  0  0  0  0  0  0  0  0  0  0  0
   22.9724    0.1833  -11.0841 C   0  0  2  0  0  0  0  0  0  0  0  0
   21.6371   -0.3290  -10.7928 C   0  0  0  0  0  0  0  0  0  0  0  0
   21.3879   -1.6900  -10.9815 C   0  0  0  0  0  0  0  0  0  0  0  0
   20.1706   -2.2617  -10.7294 C   0  0  0  0  0  0  0  0  0  0  0  0
   19.1399   -1.4750  -10.2708 C   0  0  0  0  0  0  0  0  0  0  0  0
   19.3781   -0.1174  -10.0799 C   0  0  0  0  0  0  0  0  0  0  0  0
   17.9936    0.9968   -9.4499 Br  0  0  0  0  0  0  0  0  0  0  0  0
   20.6137    0.4374  -10.3405 C   0  0  0  0  0  0  0  0  0  0  0  0
   23.4869   -0.2115  -12.3758 N   0  0  0  0  0  0  0  0  0  0  0  0
   24.8371    0.1067  -12.6820 C   0  0  0  0  0  0  0  0  0  0  0  0
   25.5247    0.0861  -13.8278 N   0  0  0  0  0  0  0  0  0  0  0  0
   26.7891    0.4787  -13.6116 N   0  0  0  0  0  0  0  0  0  0  0  0
   26.8510    0.7371  -12.3095 N   0  0  0  0  0  0  0  0  0  0  0  0
   25.7013    0.5255  -11.7210 N   0  0  0  0  0  0  0  0  0  0  0  0
  1  2  1  0
  2  3  2  0
  3  4  1  0
  3  5  1  0
  5  6  2  0
  6  7  1  0
  7  8  1  0
  7  9  2  0
 10  9  1  1
 11 10  1  6
 11 12  1  0
 12 13  1  1
 13 14  2  0
 14 15  1  0
 15 16  2  0
 16 17  1  0
 17 18  1  0
 17 19  2  0
 12 20  1  0
 20 21  1  0
 21 22  2  0
 22 23  1  0
 23 24  2  0
 24 25  1  0
  9  2  1  0
 25 10  1  0
 19 13  1  0
 25 21  1  0
M  END
$$$$
