_rank6
     RDKit          3D

 25 28  0  0  0  0  0  0  0  0999 V2000
   26.2734   -2.2691   -9.6744 F   0  0  0  0  0  0  0  0  0  0  0  0
   26.6702   -0.9908   -9.3882 C   0  0  0  0  0  0  0  0  0  0  0  0
   27.6509   -0.8799   -8.4175 C   0  0  0  0  0  0  0  0  0  0  0  0
   28.3749   -2.4203   -7.5630 Br  0  0  0  0  0  0  0  0  0  0  0  0
   28.1206    0.3745   -8.0548 C   0  0  0  0  0  0  0  0  0  0  0  0
   27.5963    1.4934   -8.6739 C   0  0  0  0  0  0  0  0  0  0  0  0
   26.6171    1.3639   -9.6415 C   0  0  0  0  0  0  0  0  0  0  0  0
   25.9510    2.7754  -10.4232 Cl  0  0  0  0  0  0  0  0  0  0  0  0
   26.1311    0.1064  -10.0202 C   0  0  0  0  0  0  0  0  0  0  0  0
   25.1027   -0.0755  -11.0315 C   0  0  2  0  0  0  0  0  0  0  0  0
   23.8394   -0.5718  -10.3169 C   0  0  0  0  0  0  0  0  0  0  0  0
   22.7574   -0.5646  -11.3914 C   0  0  2  0  0  0  0  0  0  0  0  0
   21.4027   -0.7267  -10.8728 C   0  0  0  0  0  0  0  0  0  0  0  0
   20.8514   -2.0091  -10.8334 C   0  0  0  0  0  0  0  0  0  0  0  0
   19.5928   -2.2596  -10.3588 C   0  0  0  0  0  0  0  0  0  0  0  0
   18.8271   -1.2142   -9.8981 C   0  0  0  0  0  0  0  0  0  0  0  0
   19.3673    0.0676   -9.9333 C   0  0  0  0  0  0  0  0  0  0  0  0
   18.3527    1.5291   -9.3090 Br  0  0  0  0  0  0  0  0  0  0  0  0
   20.6389    0.2967  -10.4162 C   0  0  0  0  0  0  0  0  0  0  0  0
   23.1526   -1.5833  -12.3375 N   0  0  0  0  0  0  0  0  0  0  0  0
   24.5037   -1.5991  -12.7757 C   0  0  0  0  0  0  0  0  0  0  0  0
   25.1135   -2.2407  -13.7770 N   0  0  0  0  0  0  0  0  0  0  0  0
   26.4189   -1.9319  -13.7928 N   0  0  0  0  0  0  0  0  0  0  0  0
   26.5852   -1.0894  -12.7785 N   0  0  0  0  0  0  0  0  0  0  0  0
   25.4605   -0.8672  -12.1473 N   0  0  0  0  0  0  0  0  0  0  0  0
  1  2  1  0
  2  3  2  0
  3  4  1  0
  3  5  1  0
  5  6  2  0
  6  7  1  0
  7  8  1  0
  7  9  2  0
 10  9  1  1
 11 10  1  6
 11 12  1  0
 12 13  1  1
 13 14  2  0
 14 15  1  0
 15 16  2  0
 16 17  1  0
 17 18  1  0
 17 19  2  0
 12 20  1  0
 20 21  1  0
 21 22  2  0
 22 23  1  0
 23 24  2  0
 24 25  1  0
  9  2  1  0
 25 10  1  0
 19 13  1  0
 25 21  1  0
M  END
$$$$
