_rank13
     RDKit          3D

 25 28  0  0  0  0  0  0  0  0999 V2000
   25.1386   -1.1769   -8.4729 F   0  0  0  0  0  0  0  0  0  0  0  0
   25.9272   -0.5695   -9.4124 C   0  0  0  0  0  0  0  0  0  0  0  0
   27.1931   -0.2130   -8.9801 C   0  0  0  0  0  0  0  0  0  0  0  0
   27.7633   -0.5607   -7.1966 Br  0  0  0  0  0  0  0  0  0  0  0  0
   28.0692    0.4100   -9.8577 C   0  0  0  0  0  0  0  0  0  0  0  0
   27.6571    0.6631  -11.1524 C   0  0  0  0  0  0  0  0  0  0  0  0
   26.3890    0.3001  -11.5669 C   0  0  0  0  0  0  0  0  0  0  0  0
   25.8646    0.6209  -13.2008 Cl  0  0  0  0  0  0  0  0  0  0  0  0
   25.4916   -0.3293  -10.6955 C   0  0  0  0  0  0  0  0  0  0  0  0
   24.1498   -0.7271  -11.0889 C   0  0  2  0  0  0  0  0  0  0  0  0
   23.1637    0.0574  -10.2140 C   0  0  0  0  0  0  0  0  0  0  0  0
   21.7905   -0.2611  -10.7956 C   0  0  2  0  0  0  0  0  0  0  0  0
   20.7210    0.6008  -10.3021 C   0  0  0  0  0  0  0  0  0  0  0  0
   20.6356    1.9061  -10.7908 C   0  0  0  0  0  0  0  0  0  0  0  0
   19.6647    2.7839  -10.3921 C   0  0  0  0  0  0  0  0  0  0  0  0
   18.7271    2.3774   -9.4717 C   0  0  0  0  0  0  0  0  0  0  0  0
   18.8037    1.0786   -8.9784 C   0  0  0  0  0  0  0  0  0  0  0  0
   17.5366    0.4794   -7.7171 Br  0  0  0  0  0  0  0  0  0  0  0  0
   19.7914    0.2106   -9.3949 C   0  0  0  0  0  0  0  0  0  0  0  0
   21.5826   -1.6675  -10.5346 N   0  0  0  0  0  0  0  0  0  0  0  0
   22.6407   -2.5658  -10.8366 C   0  0  0  0  0  0  0  0  0  0  0  0
   22.6870   -3.8986  -10.9239 N   0  0  0  0  0  0  0  0  0  0  0  0
   23.9284   -4.2951  -11.2423 N   0  0  0  0  0  0  0  0  0  0  0  0
   24.6320   -3.1724  -11.3456 N   0  0  0  0  0  0  0  0  0  0  0  0
   23.8939   -2.1177  -11.1094 N   0  0  0  0  0  0  0  0  0  0  0  0
  1  2  1  0
  2  3  2  0
  3  4  1  0
  3  5  1  0
  5  6  2  0
  6  7  1  0
  7  8  1  0
  7  9  2  0
 10  9  1  1
 11 10  1  6
 11 12  1  0
 12 13  1  1
 13 14  2  0
 14 15  1  0
 15 16  2  0
 16 17  1  0
 17 18  1  0
 17 19  2  0
 12 20  1  0
 20 21  1  0
 21 22  2  0
 22 23  1  0
 23 24  2  0
 24 25  1  0
  9  2  1  0
 25 10  1  0
 19 13  1  0
 25 21  1  0
M  END
$$$$
