_rank9
     RDKit          3D

 25 28  0  0  0  0  0  0  0  0999 V2000
   26.8038    1.9363   -9.8223 F   0  0  0  0  0  0  0  0  0  0  0  0
   26.8012    0.6863   -9.2646 C   0  0  0  0  0  0  0  0  0  0  0  0
   27.7658    0.4697   -8.2956 C   0  0  0  0  0  0  0  0  0  0  0  0
   28.9923    1.8390   -7.7979 Br  0  0  0  0  0  0  0  0  0  0  0  0
   27.8467   -0.7665   -7.6703 C   0  0  0  0  0  0  0  0  0  0  0  0
   26.9575   -1.7614   -8.0302 C   0  0  0  0  0  0  0  0  0  0  0  0
   26.0004   -1.5273   -9.0003 C   0  0  0  0  0  0  0  0  0  0  0  0
   24.8776   -2.7828   -9.4591 Cl  0  0  0  0  0  0  0  0  0  0  0  0
   25.9039   -0.2864   -9.6419 C   0  0  0  0  0  0  0  0  0  0  0  0
   24.9142    0.0024  -10.6669 C   0  0  2  0  0  0  0  0  0  0  0  0
   23.5690   -0.5446  -10.1726 C   0  0  0  0  0  0  0  0  0  0  0  0
   22.5502   -0.0513  -11.1945 C   0  0  2  0  0  0  0  0  0  0  0  0
   21.1614   -0.2098  -10.7742 C   0  0  0  0  0  0  0  0  0  0  0  0
   20.6178    0.7302   -9.8962 C   0  0  0  0  0  0  0  0  0  0  0  0
   19.3249    0.6678   -9.4526 C   0  0  0  0  0  0  0  0  0  0  0  0
   18.5155   -0.3584   -9.8808 C   0  0  0  0  0  0  0  0  0  0  0  0
   19.0480   -1.3003  -10.7556 C   0  0  0  0  0  0  0  0  0  0  0  0
   17.9721   -2.7219  -11.3697 Br  0  0  0  0  0  0  0  0  0  0  0  0
   20.3545   -1.2174  -11.1900 C   0  0  0  0  0  0  0  0  0  0  0  0
   22.8772   -0.7404  -12.4222 N   0  0  0  0  0  0  0  0  0  0  0  0
   24.2387   -0.7746  -12.8260 C   0  0  0  0  0  0  0  0  0  0  0  0
   24.8233   -1.1185  -13.9776 N   0  0  0  0  0  0  0  0  0  0  0  0
   26.1541   -0.9830  -13.8754 N   0  0  0  0  0  0  0  0  0  0  0  0
   26.3614   -0.5496  -12.6363 N   0  0  0  0  0  0  0  0  0  0  0  0
   25.2378   -0.4134  -11.9791 N   0  0  0  0  0  0  0  0  0  0  0  0
  1  2  1  0
  2  3  2  0
  3  4  1  0
  3  5  1  0
  5  6  2  0
  6  7  1  0
  7  8  1  0
  7  9  2  0
 10  9  1  1
 11 10  1  6
 11 12  1  0
 12 13  1  1
 13 14  2  0
 14 15  1  0
 15 16  2  0
 16 17  1  0
 17 18  1  0
 17 19  2  0
 12 20  1  0
 20 21  1  0
 21 22  2  0
 22 23  1  0
 23 24  2  0
 24 25  1  0
  9  2  1  0
 25 10  1  0
 19 13  1  0
 25 21  1  0
M  END
$$$$
