_rank18
     RDKit          3D

 25 28  0  0  0  0  0  0  0  0999 V2000
   21.1897    1.1710  -11.3898 F   0  0  0  0  0  0  0  0  0  0  0  0
   20.5877    0.2831  -10.5398 C   0  0  0  0  0  0  0  0  0  0  0  0
   19.3937    0.7121   -9.9859 C   0  0  0  0  0  0  0  0  0  0  0  0
   18.6692    2.4235  -10.4022 Br  0  0  0  0  0  0  0  0  0  0  0  0
   18.7056   -0.1154   -9.1098 C   0  0  0  0  0  0  0  0  0  0  0  0
   19.2299   -1.3577   -8.8066 C   0  0  0  0  0  0  0  0  0  0  0  0
   20.4239   -1.7698   -9.3691 C   0  0  0  0  0  0  0  0  0  0  0  0
   21.0901   -3.3372   -8.9859 Cl  0  0  0  0  0  0  0  0  0  0  0  0
   21.1320   -0.9484  -10.2550 C   0  0  0  0  0  0  0  0  0  0  0  0
   22.3901   -1.3412  -10.8684 C   0  0  2  0  0  0  0  0  0  0  0  0
   23.5184   -0.6929  -10.0561 C   0  0  0  0  0  0  0  0  0  0  0  0
   24.8004   -1.2870  -10.6297 C   0  0  2  0  0  0  0  0  0  0  0  0
   25.9882   -1.0323   -9.8205 C   0  0  0  0  0  0  0  0  0  0  0  0
   26.0444   -1.5640   -8.5305 C   0  0  0  0  0  0  0  0  0  0  0  0
   27.1180   -1.3837   -7.7016 C   0  0  0  0  0  0  0  0  0  0  0  0
   28.1938   -0.6500   -8.1441 C   0  0  0  0  0  0  0  0  0  0  0  0
   28.1473   -0.1157   -9.4280 C   0  0  0  0  0  0  0  0  0  0  0  0
   29.6020    0.8944  -10.0753 Br  0  0  0  0  0  0  0  0  0  0  0  0
   27.0543   -0.3104  -10.2465 C   0  0  0  0  0  0  0  0  0  0  0  0
   24.8861   -0.7778  -11.9797 N   0  0  0  0  0  0  0  0  0  0  0  0
   23.7216   -0.8387  -12.7910 C   0  0  0  0  0  0  0  0  0  0  0  0
   23.5342   -0.6691  -14.1034 N   0  0  0  0  0  0  0  0  0  0  0  0
   22.2372   -0.8298  -14.4064 N   0  0  0  0  0  0  0  0  0  0  0  0
   21.6444   -1.1003  -13.2482 N   0  0  0  0  0  0  0  0  0  0  0  0
   22.5019   -1.1138  -12.2595 N   0  0  0  0  0  0  0  0  0  0  0  0
  1  2  1  0
  2  3  2  0
  3  4  1  0
  3  5  1  0
  5  6  2  0
  6  7  1  0
  7  8  1  0
  7  9  2  0
 10  9  1  1
 11 10  1  6
 11 12  1  0
 12 13  1  1
 13 14  2  0
 14 15  1  0
 15 16  2  0
 16 17  1  0
 17 18  1  0
 17 19  2  0
 12 20  1  0
 20 21  1  0
 21 22  2  0
 22 23  1  0
 23 24  2  0
 24 25  1  0
  9  2  1  0
 25 10  1  0
 19 13  1  0
 25 21  1  0
M  END
$$$$
