_rank3
     RDKit          3D

 25 28  0  0  0  0  0  0  0  0999 V2000
   25.2222   -1.8961   -9.2486 F   0  0  0  0  0  0  0  0  0  0  0  0
   26.1090   -0.8627   -9.1107 C   0  0  0  0  0  0  0  0  0  0  0  0
   27.1325   -1.0793   -8.2040 C   0  0  0  0  0  0  0  0  0  0  0  0
   27.2661   -2.7139   -7.2358 Br  0  0  0  0  0  0  0  0  0  0  0  0
   28.0832   -0.0912   -7.9912 C   0  0  0  0  0  0  0  0  0  0  0  0
   27.9878    1.0957   -8.6930 C   0  0  0  0  0  0  0  0  0  0  0  0
   26.9587    1.2949   -9.5947 C   0  0  0  0  0  0  0  0  0  0  0  0
   26.8339    2.7939  -10.4806 Cl  0  0  0  0  0  0  0  0  0  0  0  0
   25.9905    0.3092   -9.8224 C   0  0  0  0  0  0  0  0  0  0  0  0
   24.8923    0.4768  -10.7601 C   0  0  2  0  0  0  0  0  0  0  0  0
   23.6491   -0.1636  -10.1295 C   0  0  0  0  0  0  0  0  0  0  0  0
   22.5045    0.2053  -11.0672 C   0  0  2  0  0  0  0  0  0  0  0  0
   21.1777   -0.0544  -10.5172 C   0  0  0  0  0  0  0  0  0  0  0  0
   20.5617    0.9435   -9.7590 C   0  0  0  0  0  0  0  0  0  0  0  0
   19.3179    0.7937   -9.2090 C   0  0  0  0  0  0  0  0  0  0  0  0
   18.6340   -0.3837   -9.4025 C   0  0  0  0  0  0  0  0  0  0  0  0
   19.2393   -1.3843  -10.1564 C   0  0  0  0  0  0  0  0  0  0  0  0
   18.3357   -3.0133  -10.4485 Br  0  0  0  0  0  0  0  0  0  0  0  0
   20.4944   -1.2113  -10.7016 C   0  0  0  0  0  0  0  0  0  0  0  0
   22.7799   -0.4973  -12.2999 N   0  0  0  0  0  0  0  0  0  0  0  0
   24.0979   -0.4312  -12.8256 C   0  0  0  0  0  0  0  0  0  0  0  0
   24.6056   -0.7656  -14.0158 N   0  0  0  0  0  0  0  0  0  0  0  0
   25.9233   -0.5150  -14.0397 N   0  0  0  0  0  0  0  0  0  0  0  0
   26.2013   -0.0216  -12.8375 N   0  0  0  0  0  0  0  0  0  0  0  0
   25.1330    0.0429  -12.0842 N   0  0  0  0  0  0  0  0  0  0  0  0
  1  2  1  0
  2  3  2  0
  3  4  1  0
  3  5  1  0
  5  6  2  0
  6  7  1  0
  7  8  1  0
  7  9  2  0
 10  9  1  1
 11 10  1  6
 11 12  1  0
 12 13  1  1
 13 14  2  0
 14 15  1  0
 15 16  2  0
 16 17  1  0
 17 18  1  0
 17 19  2  0
 12 20  1  0
 20 21  1  0
 21 22  2  0
 22 23  1  0
 23 24  2  0
 24 25  1  0
  9  2  1  0
 25 10  1  0
 19 13  1  0
 25 21  1  0
M  END
$$$$
