_rank19
     RDKit          3D

 25 28  0  0  0  0  0  0  0  0999 V2000
   19.8280   -2.2381   -8.8845 F   0  0  0  0  0  0  0  0  0  0  0  0
   19.7889   -0.9146   -9.2314 C   0  0  0  0  0  0  0  0  0  0  0  0
   18.6682   -0.2243   -8.8027 C   0  0  0  0  0  0  0  0  0  0  0  0
   17.2980   -1.0881   -7.8010 Br  0  0  0  0  0  0  0  0  0  0  0  0
   18.5336    1.1234   -9.1047 C   0  0  0  0  0  0  0  0  0  0  0  0
   19.5269    1.7519   -9.8315 C   0  0  0  0  0  0  0  0  0  0  0  0
   20.6395    1.0467  -10.2517 C   0  0  0  0  0  0  0  0  0  0  0  0
   21.8946    1.8371  -11.1723 Cl  0  0  0  0  0  0  0  0  0  0  0  0
   20.7924   -0.3135   -9.9563 C   0  0  0  0  0  0  0  0  0  0  0  0
   21.9447   -1.0929  -10.3785 C   0  0  2  0  0  0  0  0  0  0  0  0
   23.2006   -0.3072   -9.9802 C   0  0  0  0  0  0  0  0  0  0  0  0
   24.3601   -1.2517  -10.2784 C   0  0  2  0  0  0  0  0  0  0  0  0
   25.6356   -0.8256   -9.7108 C   0  0  0  0  0  0  0  0  0  0  0  0
   25.8154   -0.9163   -8.3290 C   0  0  0  0  0  0  0  0  0  0  0  0
   26.9773   -0.5470   -7.7078 C   0  0  0  0  0  0  0  0  0  0  0  0
   28.0201   -0.0643   -8.4635 C   0  0  0  0  0  0  0  0  0  0  0  0
   27.8507    0.0301   -9.8413 C   0  0  0  0  0  0  0  0  0  0  0  0
   29.2560    0.6841  -10.9151 Br  0  0  0  0  0  0  0  0  0  0  0  0
   26.6702   -0.3482  -10.4462 C   0  0  0  0  0  0  0  0  0  0  0  0
   24.3737   -1.3968  -11.7165 N   0  0  0  0  0  0  0  0  0  0  0  0
   23.1404   -1.6541  -12.3728 C   0  0  0  0  0  0  0  0  0  0  0  0
   22.8530   -2.0501  -13.6165 N   0  0  0  0  0  0  0  0  0  0  0  0
   21.5244   -2.1579  -13.7684 N   0  0  0  0  0  0  0  0  0  0  0  0
   21.0147   -1.8182  -12.5891 N   0  0  0  0  0  0  0  0  0  0  0  0
   21.9524   -1.5104  -11.7295 N   0  0  0  0  0  0  0  0  0  0  0  0
  1  2  1  0
  2  3  2  0
  3  4  1  0
  3  5  1  0
  5  6  2  0
  6  7  1  0
  7  8  1  0
  7  9  2  0
 10  9  1  6
 11 10  1  6
 11 12  1  0
 12 13  1  6
 13 14  2  0
 14 15  1  0
 15 16  2  0
 16 17  1  0
 17 18  1  0
 17 19  2  0
 12 20  1  0
 20 21  1  0
 21 22  2  0
 22 23  1  0
 23 24  2  0
 24 25  1  0
  9  2  1  0
 25 10  1  0
 19 13  1  0
 25 21  1  0
M  END
$$$$
