_rank11
     RDKit          3D

 28 30  0  0  0  0  0  0  0  0999 V2000
   24.9887   -0.0152  -12.4590 C   0  0  0  0  0  0  0  0  0  0  0  0
   24.9031   -0.1423  -10.9903 C   0  0  0  0  0  0  0  0  0  0  0  0
   23.7815   -0.3106  -10.1236 C   0  0  0  0  0  0  0  0  0  0  0  0
   24.0100   -0.4085   -8.7496 C   0  0  0  0  0  0  0  0  0  0  0  0
   25.3130   -0.3363   -8.3102 C   0  0  0  0  0  0  0  0  0  0  0  0
   26.4000   -0.1748   -9.1291 C   0  0  0  0  0  0  0  0  0  0  0  0
   26.1633   -0.0792  -10.4842 C   0  0  0  0  0  0  0  0  0  0  0  0
   27.1582    0.0984  -11.5902 C   0  0  1  0  0  0  0  0  0  0  0  0
   26.2653    0.7281  -12.6714 C   0  0  2  0  0  0  0  0  0  0  0  0
   26.0415    2.0636  -12.3228 F   0  0  0  0  0  0  0  0  0  0  0  0
   26.8017    0.6012  -13.9157 F   0  0  0  0  0  0  0  0  0  0  0  0
   28.1059    1.0756  -11.2990 O   0  0  0  0  0  0  0  0  0  0  0  0
   28.0245   -0.0930   -8.5036 S   0  0  2  0  0  6  0  0  0  0  0  0
   28.0655    0.2507   -7.0414 O   0  0  0  0  0  0  0  0  0  0  0  0
   28.8655    0.8782   -9.3034 O   0  0  0  0  0  0  0  0  0  0  0  0
   28.7350   -1.7377   -8.6466 C   0  0  2  0  0  0  0  0  0  0  0  0
   29.2265   -1.8499   -9.9158 F   0  0  0  0  0  0  0  0  0  0  0  0
   27.7788   -2.6955   -8.3647 F   0  0  0  0  0  0  0  0  0  0  0  0
   22.5887   -0.3647  -10.6658 O   0  0  0  0  0  0  0  0  0  0  0  0
   21.3090   -0.6085  -10.6814 C   0  0  0  0  0  0  0  0  0  0  0  0
   20.8051   -1.8479  -11.1721 C   0  0  0  0  0  0  0  0  0  0  0  0
   19.4928   -2.1217  -11.1982 C   0  0  0  0  0  0  0  0  0  0  0  0
   18.5790   -1.2061  -10.7474 C   0  0  0  0  0  0  0  0  0  0  0  0
   19.0145    0.0029  -10.2649 C   0  0  0  0  0  0  0  0  0  0  0  0
   20.3584    0.3001  -10.2311 C   0  0  0  0  0  0  0  0  0  0  0  0
   18.0688    0.9939   -9.7800 C   0  0  0  0  0  0  0  0  0  0  0  0
   17.3165    1.7752   -9.3759 N   0  0  0  0  0  0  0  0  0  0  0  0
   19.0600   -3.3161  -11.6747 F   0  0  0  0  0  0  0  0  0  0  0  0
  1  2  1  1
  2  3  2  0
  3  4  1  0
  4  5  2  0
  5  6  1  0
  6  7  2  0
  7  8  1  0
  8  9  1  0
  9 10  1  1
  9 11  1  0
  8 12  1  1
 13  6  1  6
 13 14  2  0
 13 15  2  0
 13 16  1  0
 16 17  1  6
 16 18  1  0
  3 19  1  0
 19 20  1  0
 20 21  2  0
 21 22  1  0
 22 23  2  0
 23 24  1  0
 24 25  2  0
 24 26  1  0
 26 27  3  0
 22 28  1  0
  9  1  1  0
  7  2  1  0
 25 20  1  0
M  END
$$$$
