_rank4
     RDKit          3D

 20 22  0  0  0  0  0  0  0  0999 V2000
   24.7157   -0.6451  -12.9751 O   0  0  0  0  0  0  0  0  0  0  0  0
   25.6093   -0.3718  -12.1520 N   0  0  0  0  0  4  0  0  0  0  0  0
   26.8664   -0.1200  -12.6422 O   0  0  0  0  0  1  0  0  0  0  0  0
   25.3682   -0.3142  -10.7412 C   0  0  0  0  0  0  0  0  0  0  0  0
   24.1144   -0.7283  -10.2583 C   0  0  0  0  0  0  0  0  0  0  0  0
   23.1344   -1.2139  -11.1479 N   0  0  0  0  0  0  0  0  0  0  0  0
   21.8635   -1.7698  -10.8684 C   0  0  0  0  0  0  0  0  0  0  0  0
   20.7125   -0.8700  -10.8661 C   0  0  0  0  0  0  0  0  0  0  0  0
   20.2820   -0.1376  -11.9347 C   0  0  0  0  0  0  0  0  0  0  0  0
   19.1669    0.6896  -11.9014 C   0  0  0  0  0  0  0  0  0  0  0  0
   18.4381    0.7923  -10.7302 C   0  0  0  0  0  0  0  0  0  0  0  0
   18.8429    0.0712   -9.6371 C   0  0  0  0  0  0  0  0  0  0  0  0
   19.9455   -0.7384   -9.6930 C   0  0  0  0  0  0  0  0  0  0  0  0
   23.9057   -0.6645   -8.9048 C   0  0  0  0  0  0  0  0  0  0  0  0
   24.9243   -0.1986   -8.0656 C   0  0  0  0  0  0  0  0  0  0  0  0
   26.1398    0.2009   -8.5557 C   0  0  0  0  0  0  0  0  0  0  0  0
   27.2848    0.6790   -8.0437 N   0  0  0  0  0  0  0  0  0  0  0  0
   28.1548    0.9025   -8.9884 O   0  0  0  0  0  0  0  0  0  0  0  0
   27.6037    0.5795  -10.1200 N   0  0  0  0  0  0  0  0  0  0  0  0
   26.3584    0.1388   -9.9213 C   0  0  0  0  0  0  0  0  0  0  0  0
  1  2  2  0
  2  3  1  0
  2  4  1  0
  4  5  2  0
  5  6  1  0
  7  6  1  6
  7  8  1  0
  8  9  2  0
  9 10  1  0
 10 11  2  0
 11 12  1  0
 12 13  2  0
  5 14  1  0
 14 15  2  0
 15 16  1  0
 16 17  2  0
 17 18  1  0
 18 19  1  0
 19 20  2  0
 20  4  1  0
 13  8  1  0
 20 16  1  0
M  CHG  2   2   1   3  -1
M  END
$$$$
