_rank14
     RDKit          3D

 28 30  0  0  0  0  0  0  0  0999 V2000
   24.6338   -0.0649  -12.6069 C   0  0  0  0  0  0  0  0  0  0  0  0
   24.5564   -0.1125  -11.1330 C   0  0  0  0  0  0  0  0  0  0  0  0
   23.4397   -0.2342  -10.2522 C   0  0  0  0  0  0  0  0  0  0  0  0
   23.6759   -0.2576   -8.8763 C   0  0  0  0  0  0  0  0  0  0  0  0
   24.9812   -0.1612   -8.4486 C   0  0  0  0  0  0  0  0  0  0  0  0
   26.0636   -0.0438   -9.2811 C   0  0  0  0  0  0  0  0  0  0  0  0
   25.8193   -0.0216  -10.6381 C   0  0  0  0  0  0  0  0  0  0  0  0
   26.8080    0.0963  -11.7575 C   0  0  1  0  0  0  0  0  0  0  0  0
   25.9087    0.6663  -12.8662 C   0  0  2  0  0  0  0  0  0  0  0  0
   25.6859    2.0186  -12.5891 F   0  0  0  0  0  0  0  0  0  0  0  0
   26.4383    0.4726  -14.1048 F   0  0  0  0  0  0  0  0  0  0  0  0
   27.7566    1.0883  -11.5249 O   0  0  0  0  0  0  0  0  0  0  0  0
   27.6914    0.0724   -8.6699 S   0  0  2  0  0  6  0  0  0  0  0  0
   27.7458    0.5972   -7.2631 O   0  0  0  0  0  0  0  0  0  0  0  0
   28.5561    0.9114   -9.5857 O   0  0  0  0  0  0  0  0  0  0  0  0
   28.3568   -1.5958   -8.6032 C   0  0  2  0  0  0  0  0  0  0  0  0
   28.2701   -2.1098   -9.8655 F   0  0  0  0  0  0  0  0  0  0  0  0
   27.6596   -2.3498   -7.6776 F   0  0  0  0  0  0  0  0  0  0  0  0
   22.2440   -0.3180  -10.7841 O   0  0  0  0  0  0  0  0  0  0  0  0
   20.9574   -0.5222  -10.7700 C   0  0  0  0  0  0  0  0  0  0  0  0
   20.0618    0.4790  -10.2942 C   0  0  0  0  0  0  0  0  0  0  0  0
   18.7343    0.2922  -10.2699 C   0  0  0  0  0  0  0  0  0  0  0  0
   18.1862   -0.8845  -10.7079 C   0  0  0  0  0  0  0  0  0  0  0  0
   19.0071   -1.8802  -11.1757 C   0  0  0  0  0  0  0  0  0  0  0  0
   20.3724   -1.7047  -11.2076 C   0  0  0  0  0  0  0  0  0  0  0  0
   18.4546   -3.1389  -11.6468 C   0  0  0  0  0  0  0  0  0  0  0  0
   18.0299   -4.1509  -12.0141 N   0  0  0  0  0  0  0  0  0  0  0  0
   17.9209    1.2750   -9.8078 F   0  0  0  0  0  0  0  0  0  0  0  0
  1  2  1  1
  2  3  2  0
  3  4  1  0
  4  5  2  0
  5  6  1  0
  6  7  2  0
  7  8  1  0
  8  9  1  0
  9 10  1  1
  9 11  1  0
  8 12  1  1
 13  6  1  6
 13 14  2  0
 13 15  2  0
 13 16  1  0
 16 17  1  6
 16 18  1  0
  3 19  1  0
 19 20  1  0
 20 21  2  0
 21 22  1  0
 22 23  2  0
 23 24  1  0
 24 25  2  0
 24 26  1  0
 26 27  3  0
 22 28  1  0
  9  1  1  0
  7  2  1  0
 25 20  1  0
M  END
$$$$
