_rank12
     RDKit          3D

 28 30  0  0  0  0  0  0  0  0999 V2000
   24.8850    0.0996  -12.6280 C   0  0  0  0  0  0  0  0  0  0  0  0
   24.7893   -0.2389  -11.1938 C   0  0  0  0  0  0  0  0  0  0  0  0
   23.6580   -0.4093  -10.3401 C   0  0  0  0  0  0  0  0  0  0  0  0
   23.8774   -0.7401   -9.0014 C   0  0  0  0  0  0  0  0  0  0  0  0
   25.1813   -0.8831   -8.5823 C   0  0  0  0  0  0  0  0  0  0  0  0
   26.2775   -0.7228   -9.3891 C   0  0  0  0  0  0  0  0  0  0  0  0
   26.0497   -0.3961  -10.7093 C   0  0  0  0  0  0  0  0  0  0  0  0
   27.0555   -0.1660  -11.7956 C   0  0  1  0  0  0  0  0  0  0  0  0
   26.2378    0.7175  -12.7514 C   0  0  2  0  0  0  0  0  0  0  0  0
   26.1695    2.0012  -12.2011 F   0  0  0  0  0  0  0  0  0  0  0  0
   26.7528    0.7216  -14.0111 F   0  0  0  0  0  0  0  0  0  0  0  0
   28.1098    0.6424  -11.3795 O   0  0  0  0  0  0  0  0  0  0  0  0
   27.9022   -0.9210   -8.7911 S   0  0  2  0  0  6  0  0  0  0  0  0
   28.9151   -1.0399   -9.8945 O   0  0  0  0  0  0  0  0  0  0  0  0
   27.9944   -2.1049   -7.8530 O   0  0  0  0  0  0  0  0  0  0  0  0
   28.3251    0.5747   -7.8887 C   0  0  2  0  0  0  0  0  0  0  0  0
   28.4718    1.5692   -8.8130 F   0  0  0  0  0  0  0  0  0  0  0  0
   29.4724    0.3732   -7.1442 F   0  0  0  0  0  0  0  0  0  0  0  0
   22.4655   -0.2453  -10.8603 O   0  0  0  0  0  0  0  0  0  0  0  0
   21.1693   -0.3691  -10.9036 C   0  0  0  0  0  0  0  0  0  0  0  0
   20.5608   -1.4804  -11.5560 C   0  0  0  0  0  0  0  0  0  0  0  0
   19.2295   -1.6294  -11.6137 C   0  0  0  0  0  0  0  0  0  0  0  0
   18.3975   -0.7052  -11.0392 C   0  0  0  0  0  0  0  0  0  0  0  0
   18.9352    0.3833  -10.3988 C   0  0  0  0  0  0  0  0  0  0  0  0
   20.3000    0.5516  -10.3304 C   0  0  0  0  0  0  0  0  0  0  0  0
   18.0778    1.3802   -9.7801 C   0  0  0  0  0  0  0  0  0  0  0  0
   17.3822    2.1601   -9.2827 N   0  0  0  0  0  0  0  0  0  0  0  0
   18.6957   -2.7046  -12.2462 F   0  0  0  0  0  0  0  0  0  0  0  0
  1  2  1  1
  2  3  2  0
  3  4  1  0
  4  5  2  0
  5  6  1  0
  6  7  2  0
  7  8  1  0
  8  9  1  0
  9 10  1  1
  9 11  1  0
  8 12  1  1
 13  6  1  6
 13 14  2  0
 13 15  2  0
 13 16  1  0
 16 17  1  6
 16 18  1  0
  3 19  1  0
 19 20  1  0
 20 21  2  0
 21 22  1  0
 22 23  2  0
 23 24  1  0
 24 25  2  0
 24 26  1  0
 26 27  3  0
 22 28  1  0
  9  1  1  0
  7  2  1  0
 25 20  1  0
M  END
$$$$
