_rank18
     RDKit          3D

 20 22  0  0  0  0  0  0  0  0999 V2000
   25.6389    2.6238   -9.5471 O   0  0  0  0  0  0  0  0  0  0  0  0
   25.0104    1.6883  -10.0767 N   0  0  0  0  0  4  0  0  0  0  0  0
   23.9512    2.0152  -10.8861 O   0  0  0  0  0  1  0  0  0  0  0  0
   25.3534    0.3130   -9.8699 C   0  0  0  0  0  0  0  0  0  0  0  0
   24.5182   -0.6757  -10.4190 C   0  0  0  0  0  0  0  0  0  0  0  0
   23.3875   -0.3107  -11.1780 N   0  0  0  0  0  0  0  0  0  0  0  0
   22.4133   -1.1334  -11.7916 C   0  0  0  0  0  0  0  0  0  0  0  0
   21.0453   -1.0632  -11.2836 C   0  0  0  0  0  0  0  0  0  0  0  0
   20.2564    0.0510  -11.2944 C   0  0  0  0  0  0  0  0  0  0  0  0
   18.9498    0.0730  -10.8243 C   0  0  0  0  0  0  0  0  0  0  0  0
   18.3977   -1.0872  -10.3117 C   0  0  0  0  0  0  0  0  0  0  0  0
   19.1624   -2.2245  -10.2848 C   0  0  0  0  0  0  0  0  0  0  0  0
   20.4484   -2.2230  -10.7541 C   0  0  0  0  0  0  0  0  0  0  0  0
   24.8655   -1.9851  -10.2085 C   0  0  0  0  0  0  0  0  0  0  0  0
   26.0144   -2.2892   -9.4692 C   0  0  0  0  0  0  0  0  0  0  0  0
   26.8156   -1.3110   -8.9417 C   0  0  0  0  0  0  0  0  0  0  0  0
   27.9423   -1.2649   -8.2136 N   0  0  0  0  0  0  0  0  0  0  0  0
   28.2891   -0.0307   -7.9774 O   0  0  0  0  0  0  0  0  0  0  0  0
   27.4086    0.7431   -8.5383 N   0  0  0  0  0  0  0  0  0  0  0  0
   26.4718    0.0137   -9.1506 C   0  0  0  0  0  0  0  0  0  0  0  0
  1  2  2  0
  2  3  1  0
  2  4  1  0
  4  5  2  0
  5  6  1  0
  7  6  1  6
  7  8  1  0
  8  9  2  0
  9 10  1  0
 10 11  2  0
 11 12  1  0
 12 13  2  0
  5 14  1  0
 14 15  2  0
 15 16  1  0
 16 17  2  0
 17 18  1  0
 18 19  1  0
 19 20  2  0
 20  4  1  0
 13  8  1  0
 20 16  1  0
M  CHG  2   2   1   3  -1
M  END
$$$$
