_rank17
     RDKit          3D

 28 30  0  0  0  0  0  0  0  0999 V2000
   24.6341    0.1131  -12.6104 C   0  0  0  0  0  0  0  0  0  0  0  0
   24.5752   -0.0778  -11.1473 C   0  0  0  0  0  0  0  0  0  0  0  0
   23.4674   -0.2542  -10.2645 C   0  0  0  0  0  0  0  0  0  0  0  0
   23.7213   -0.4202   -8.9016 C   0  0  0  0  0  0  0  0  0  0  0  0
   25.0346   -0.4035   -8.4880 C   0  0  0  0  0  0  0  0  0  0  0  0
   26.1087   -0.2350   -9.3225 C   0  0  0  0  0  0  0  0  0  0  0  0
   25.8469   -0.0720  -10.6665 C   0  0  0  0  0  0  0  0  0  0  0  0
   26.8234    0.1280  -11.7850 C   0  0  1  0  0  0  0  0  0  0  0  0
   25.9265    0.8300  -12.8173 C   0  0  2  0  0  0  0  0  0  0  0  0
   25.7479    2.1541  -12.4049 F   0  0  0  0  0  0  0  0  0  0  0  0
   26.4333    0.7447  -14.0775 F   0  0  0  0  0  0  0  0  0  0  0  0
   27.8042    1.0649  -11.4715 O   0  0  0  0  0  0  0  0  0  0  0  0
   27.7473   -0.2260   -8.7297 S   0  0  2  0  0  6  0  0  0  0  0  0
   27.8206   -0.2596   -7.2293 O   0  0  0  0  0  0  0  0  0  0  0  0
   28.5148    0.9592   -9.2744 O   0  0  0  0  0  0  0  0  0  0  0  0
   28.5293   -1.7409   -9.2986 C   0  0  2  0  0  0  0  0  0  0  0  0
   28.3662   -1.7884  -10.6537 F   0  0  0  0  0  0  0  0  0  0  0  0
   27.9706   -2.8333   -8.6616 F   0  0  0  0  0  0  0  0  0  0  0  0
   22.2626   -0.2513  -10.7824 O   0  0  0  0  0  0  0  0  0  0  0  0
   20.9695   -0.4092  -10.7644 C   0  0  0  0  0  0  0  0  0  0  0  0
   20.1051    0.6661  -10.4073 C   0  0  0  0  0  0  0  0  0  0  0  0
   18.7716    0.5278  -10.3815 C   0  0  0  0  0  0  0  0  0  0  0  0
   18.1869   -0.6688  -10.7021 C   0  0  0  0  0  0  0  0  0  0  0  0
   18.9769   -1.7351  -11.0529 C   0  0  0  0  0  0  0  0  0  0  0  0
   20.3477   -1.6103  -11.0845 C   0  0  0  0  0  0  0  0  0  0  0  0
   18.3853   -3.0167  -11.3980 C   0  0  0  0  0  0  0  0  0  0  0  0
   17.9176   -4.0338  -11.6918 N   0  0  0  0  0  0  0  0  0  0  0  0
   17.9887    1.5805  -10.0351 F   0  0  0  0  0  0  0  0  0  0  0  0
  1  2  1  1
  2  3  2  0
  3  4  1  0
  4  5  2  0
  5  6  1  0
  6  7  2  0
  7  8  1  0
  8  9  1  0
  9 10  1  1
  9 11  1  0
  8 12  1  1
 13  6  1  1
 13 14  2  0
 13 15  2  0
 13 16  1  0
 16 17  1  6
 16 18  1  0
  3 19  1  0
 19 20  1  0
 20 21  2  0
 21 22  1  0
 22 23  2  0
 23 24  1  0
 24 25  2  0
 24 26  1  0
 26 27  3  0
 22 28  1  0
  9  1  1  0
  7  2  1  0
 25 20  1  0
M  END
$$$$
