_rank6
     RDKit          3D

 28 30  0  0  0  0  0  0  0  0999 V2000
   25.0398    0.0405  -12.7015 C   0  0  0  0  0  0  0  0  0  0  0  0
   24.9829   -0.3830  -11.2880 C   0  0  0  0  0  0  0  0  0  0  0  0
   23.8748   -0.6225  -10.4207 C   0  0  0  0  0  0  0  0  0  0  0  0
   24.1305   -1.0273   -9.1091 C   0  0  0  0  0  0  0  0  0  0  0  0
   25.4459   -1.1724   -8.7285 C   0  0  0  0  0  0  0  0  0  0  0  0
   26.5203   -0.9463   -9.5487 C   0  0  0  0  0  0  0  0  0  0  0  0
   26.2567   -0.5468  -10.8419 C   0  0  0  0  0  0  0  0  0  0  0  0
   27.2331   -0.2362  -11.9349 C   0  0  1  0  0  0  0  0  0  0  0  0
   26.3795    0.6876  -12.8185 C   0  0  2  0  0  0  0  0  0  0  0  0
   26.3039    1.9355  -12.1921 F   0  0  0  0  0  0  0  0  0  0  0  0
   26.8648    0.7743  -14.0870 F   0  0  0  0  0  0  0  0  0  0  0  0
   28.2839    0.5642  -11.4956 O   0  0  0  0  0  0  0  0  0  0  0  0
   28.1615   -1.1514   -8.9999 S   0  0  2  0  0  6  0  0  0  0  0  0
   29.0608   -1.7180  -10.0619 O   0  0  0  0  0  0  0  0  0  0  0  0
   28.2129   -2.0012   -7.7487 O   0  0  0  0  0  0  0  0  0  0  0  0
   28.8068    0.4833   -8.6237 C   0  0  2  0  0  0  0  0  0  0  0  0
   29.8278    0.3129   -7.7329 F   0  0  0  0  0  0  0  0  0  0  0  0
   27.8004    1.2892   -8.1247 F   0  0  0  0  0  0  0  0  0  0  0  0
   22.6680   -0.4487  -10.9036 O   0  0  0  0  0  0  0  0  0  0  0  0
   21.3696   -0.5563  -10.9033 C   0  0  0  0  0  0  0  0  0  0  0  0
   20.7272   -1.6774  -11.5045 C   0  0  0  0  0  0  0  0  0  0  0  0
   19.3930   -1.8103  -11.5168 C   0  0  0  0  0  0  0  0  0  0  0  0
   18.5909   -0.8591  -10.9436 C   0  0  0  0  0  0  0  0  0  0  0  0
   19.1619    0.2398  -10.3515 C   0  0  0  0  0  0  0  0  0  0  0  0
   20.5302    0.3917  -10.3301 C   0  0  0  0  0  0  0  0  0  0  0  0
   18.3368    1.2651   -9.7355 C   0  0  0  0  0  0  0  0  0  0  0  0
   17.6829    2.0934   -9.2602 N   0  0  0  0  0  0  0  0  0  0  0  0
   18.8264   -2.8957  -12.1014 F   0  0  0  0  0  0  0  0  0  0  0  0
  1  2  1  1
  2  3  2  0
  3  4  1  0
  4  5  2  0
  5  6  1  0
  6  7  2  0
  7  8  1  0
  8  9  1  0
  9 10  1  1
  9 11  1  0
  8 12  1  1
 13  6  1  6
 13 14  2  0
 13 15  2  0
 13 16  1  0
 16 17  1  1
 16 18  1  0
  3 19  1  0
 19 20  1  0
 20 21  2  0
 21 22  1  0
 22 23  2  0
 23 24  1  0
 24 25  2  0
 24 26  1  0
 26 27  3  0
 22 28  1  0
  9  1  1  0
  7  2  1  0
 25 20  1  0
M  END
$$$$
