_rank4
     RDKit          3D

 28 30  0  0  0  0  0  0  0  0999 V2000
   24.5838    0.1749  -12.6192 C   0  0  0  0  0  0  0  0  0  0  0  0
   24.5132   -0.1456  -11.1794 C   0  0  0  0  0  0  0  0  0  0  0  0
   23.3978   -0.2872  -10.2999 C   0  0  0  0  0  0  0  0  0  0  0  0
   23.6403   -0.6064   -8.9624 C   0  0  0  0  0  0  0  0  0  0  0  0
   24.9502   -0.7666   -8.5694 C   0  0  0  0  0  0  0  0  0  0  0  0
   26.0315   -0.6339   -9.4011 C   0  0  0  0  0  0  0  0  0  0  0  0
   25.7809   -0.3185  -10.7199 C   0  0  0  0  0  0  0  0  0  0  0  0
   26.7670   -0.1176  -11.8298 C   0  0  1  0  0  0  0  0  0  0  0  0
   25.9438    0.7685  -12.7784 C   0  0  2  0  0  0  0  0  0  0  0  0
   25.9085    2.0593  -12.2419 F   0  0  0  0  0  0  0  0  0  0  0  0
   26.4317    0.7496  -14.0487 F   0  0  0  0  0  0  0  0  0  0  0  0
   27.8431    0.6775  -11.4457 O   0  0  0  0  0  0  0  0  0  0  0  0
   27.6651   -0.8526   -8.8353 S   0  0  2  0  0  6  0  0  0  0  0  0
   28.5983   -1.3071   -9.9217 O   0  0  0  0  0  0  0  0  0  0  0  0
   27.7094   -1.8060   -7.6609 O   0  0  0  0  0  0  0  0  0  0  0  0
   28.2665    0.7562   -8.3058 C   0  0  2  0  0  0  0  0  0  0  0  0
   28.9372    1.2986   -9.3645 F   0  0  0  0  0  0  0  0  0  0  0  0
   29.0678    0.6204   -7.1874 F   0  0  0  0  0  0  0  0  0  0  0  0
   22.1973   -0.1092  -10.7966 O   0  0  0  0  0  0  0  0  0  0  0  0
   20.9027   -0.2502  -10.8348 C   0  0  0  0  0  0  0  0  0  0  0  0
   20.0377    0.8255  -10.4808 C   0  0  0  0  0  0  0  0  0  0  0  0
   18.7027    0.7044  -10.5122 C   0  0  0  0  0  0  0  0  0  0  0  0
   18.1169   -0.4744  -10.8913 C   0  0  0  0  0  0  0  0  0  0  0  0
   18.9072   -1.5405  -11.2418 C   0  0  0  0  0  0  0  0  0  0  0  0
   20.2797   -1.4332  -11.2150 C   0  0  0  0  0  0  0  0  0  0  0  0
   18.3144   -2.8035  -11.6481 C   0  0  0  0  0  0  0  0  0  0  0  0
   17.8426   -3.8154  -11.9530 N   0  0  0  0  0  0  0  0  0  0  0  0
   17.9193    1.7569  -10.1662 F   0  0  0  0  0  0  0  0  0  0  0  0
  1  2  1  1
  2  3  2  0
  3  4  1  0
  4  5  2  0
  5  6  1  0
  6  7  2  0
  7  8  1  0
  8  9  1  0
  9 10  1  1
  9 11  1  0
  8 12  1  1
 13  6  1  6
 13 14  2  0
 13 15  2  0
 13 16  1  0
 16 17  1  6
 16 18  1  0
  3 19  1  0
 19 20  1  0
 20 21  2  0
 21 22  1  0
 22 23  2  0
 23 24  1  0
 24 25  2  0
 24 26  1  0
 26 27  3  0
 22 28  1  0
  9  1  1  0
  7  2  1  0
 25 20  1  0
M  END
$$$$
