_rank3
     RDKit          3D

 20 22  0  0  0  0  0  0  0  0999 V2000
   24.8853    0.3057  -12.8965 O   0  0  0  0  0  0  0  0  0  0  0  0
   25.7870    0.1283  -12.0562 N   0  0  0  0  0  4  0  0  0  0  0  0
   27.0853    0.1990  -12.4959 O   0  0  0  0  0  1  0  0  0  0  0  0
   25.5140   -0.1413  -10.6761 C   0  0  0  0  0  0  0  0  0  0  0  0
   24.2347   -0.6066  -10.3246 C   0  0  0  0  0  0  0  0  0  0  0  0
   23.2596   -0.8264  -11.3188 N   0  0  0  0  0  0  0  0  0  0  0  0
   22.1260   -1.6730  -11.2941 C   0  0  0  0  0  0  0  0  0  0  0  0
   20.8412   -1.0797  -10.9309 C   0  0  0  0  0  0  0  0  0  0  0  0
   19.6614   -1.7583  -10.8240 C   0  0  0  0  0  0  0  0  0  0  0  0
   18.4629   -1.1636  -10.4516 C   0  0  0  0  0  0  0  0  0  0  0  0
   18.4408    0.1905  -10.1697 C   0  0  0  0  0  0  0  0  0  0  0  0
   19.6077    0.9029  -10.2681 C   0  0  0  0  0  0  0  0  0  0  0  0
   20.7779    0.2955  -10.6368 C   0  0  0  0  0  0  0  0  0  0  0  0
   23.9957   -0.8579   -8.9982 C   0  0  0  0  0  0  0  0  0  0  0  0
   25.0100   -0.6470   -8.0571 C   0  0  0  0  0  0  0  0  0  0  0  0
   26.2507   -0.1925   -8.4196 C   0  0  0  0  0  0  0  0  0  0  0  0
   27.3995    0.1029   -7.7914 N   0  0  0  0  0  0  0  0  0  0  0  0
   28.2997    0.5087   -8.6425 O   0  0  0  0  0  0  0  0  0  0  0  0
   27.7647    0.4869   -9.8265 N   0  0  0  0  0  0  0  0  0  0  0  0
   26.4998    0.0629   -9.7572 C   0  0  0  0  0  0  0  0  0  0  0  0
  1  2  2  0
  2  3  1  0
  2  4  1  0
  4  5  2  0
  5  6  1  0
  7  6  1  6
  7  8  1  0
  8  9  2  0
  9 10  1  0
 10 11  2  0
 11 12  1  0
 12 13  2  0
  5 14  1  0
 14 15  2  0
 15 16  1  0
 16 17  2  0
 17 18  1  0
 18 19  1  0
 19 20  2  0
 20  4  1  0
 13  8  1  0
 20 16  1  0
M  CHG  2   2   1   3  -1
M  END
$$$$
