_rank6
     RDKit          3D

 20 22  0  0  0  0  0  0  0  0999 V2000
   24.5768   -0.3115  -12.7812 O   0  0  0  0  0  0  0  0  0  0  0  0
   25.4996   -0.1474  -11.9614 N   0  0  0  0  0  4  0  0  0  0  0  0
   26.7188    0.2495  -12.4513 O   0  0  0  0  0  1  0  0  0  0  0  0
   25.3289   -0.3565  -10.5546 C   0  0  0  0  0  0  0  0  0  0  0  0
   24.1150   -0.9015  -10.1007 C   0  0  0  0  0  0  0  0  0  0  0  0
   23.1068   -1.2569  -11.0199 N   0  0  0  0  0  0  0  0  0  0  0  0
   21.8515   -1.8665  -10.7856 C   0  0  0  0  0  0  0  0  0  0  0  0
   20.6870   -0.9953  -10.6468 C   0  0  0  0  0  0  0  0  0  0  0  0
   20.1471   -0.5833   -9.4625 C   0  0  0  0  0  0  0  0  0  0  0  0
   19.0526    0.2666   -9.3703 C   0  0  0  0  0  0  0  0  0  0  0  0
   18.4609    0.7327  -10.5305 C   0  0  0  0  0  0  0  0  0  0  0  0
   18.9771    0.3382  -11.7375 C   0  0  0  0  0  0  0  0  0  0  0  0
   20.0572   -0.5003  -11.8045 C   0  0  0  0  0  0  0  0  0  0  0  0
   23.9735   -1.0927   -8.7506 C   0  0  0  0  0  0  0  0  0  0  0  0
   25.0183   -0.7461   -7.8862 C   0  0  0  0  0  0  0  0  0  0  0  0
   26.1940   -0.2156   -8.3481 C   0  0  0  0  0  0  0  0  0  0  0  0
   27.3479    0.2075   -7.8085 N   0  0  0  0  0  0  0  0  0  0  0  0
   28.1612    0.6336   -8.7338 O   0  0  0  0  0  0  0  0  0  0  0  0
   27.5637    0.4993   -9.8799 N   0  0  0  0  0  0  0  0  0  0  0  0
   26.3447   -0.0201   -9.7103 C   0  0  0  0  0  0  0  0  0  0  0  0
  1  2  2  0
  2  3  1  0
  2  4  1  0
  4  5  2  0
  5  6  1  0
  7  6  1  6
  7  8  1  0
  8  9  2  0
  9 10  1  0
 10 11  2  0
 11 12  1  0
 12 13  2  0
  5 14  1  0
 14 15  2  0
 15 16  1  0
 16 17  2  0
 17 18  1  0
 18 19  1  0
 19 20  2  0
 20  4  1  0
 13  8  1  0
 20 16  1  0
M  CHG  2   2   1   3  -1
M  END
$$$$
