_rank7
     RDKit          3D

 28 30  0  0  0  0  0  0  0  0999 V2000
   24.8715    0.0926  -12.7984 C   0  0  0  0  0  0  0  0  0  0  0  0
   24.7715   -0.0437  -11.3314 C   0  0  0  0  0  0  0  0  0  0  0  0
   23.6480   -0.2742  -10.4816 C   0  0  0  0  0  0  0  0  0  0  0  0
   23.8615   -0.3643   -9.1047 C   0  0  0  0  0  0  0  0  0  0  0  0
   25.1523   -0.2243   -8.6460 C   0  0  0  0  0  0  0  0  0  0  0  0
   26.2410   -0.0026   -9.4485 C   0  0  0  0  0  0  0  0  0  0  0  0
   26.0191    0.0847  -10.8067 C   0  0  0  0  0  0  0  0  0  0  0  0
   27.0191    0.3185  -11.8976 C   0  0  1  0  0  0  0  0  0  0  0  0
   26.1097    0.9034  -12.9902 C   0  0  2  0  0  0  0  0  0  0  0  0
   25.8101    2.2240  -12.6416 F   0  0  0  0  0  0  0  0  0  0  0  0
   26.6700    0.8093  -14.2268 F   0  0  0  0  0  0  0  0  0  0  0  0
   27.9091    1.3439  -11.5902 O   0  0  0  0  0  0  0  0  0  0  0  0
   27.8495    0.1634   -8.7991 S   0  0  2  0  0  6  0  0  0  0  0  0
   27.8612    0.7932   -7.4349 O   0  0  0  0  0  0  0  0  0  0  0  0
   28.7413    0.9330   -9.7492 O   0  0  0  0  0  0  0  0  0  0  0  0
   28.5129   -1.4933   -8.5864 C   0  0  2  0  0  0  0  0  0  0  0  0
   28.5263   -2.0782   -9.8204 F   0  0  0  0  0  0  0  0  0  0  0  0
   27.7481   -2.1992   -7.6764 F   0  0  0  0  0  0  0  0  0  0  0  0
   22.4678   -0.3899  -11.0413 O   0  0  0  0  0  0  0  0  0  0  0  0
   21.1690   -0.4923  -11.0473 C   0  0  0  0  0  0  0  0  0  0  0  0
   20.5187   -1.5221  -11.7872 C   0  0  0  0  0  0  0  0  0  0  0  0
   19.1839   -1.6478  -11.8087 C   0  0  0  0  0  0  0  0  0  0  0  0
   18.3889   -0.7779  -11.1101 C   0  0  0  0  0  0  0  0  0  0  0  0
   18.9678    0.2313  -10.3818 C   0  0  0  0  0  0  0  0  0  0  0  0
   20.3368    0.3746  -10.3489 C   0  0  0  0  0  0  0  0  0  0  0  0
   18.1503    1.1691   -9.6308 C   0  0  0  0  0  0  0  0  0  0  0  0
   17.5148    1.9280   -9.0311 N   0  0  0  0  0  0  0  0  0  0  0  0
   18.6095   -2.6447  -12.5279 F   0  0  0  0  0  0  0  0  0  0  0  0
  1  2  1  1
  2  3  2  0
  3  4  1  0
  4  5  2  0
  5  6  1  0
  6  7  2  0
  7  8  1  0
  8  9  1  0
  9 10  1  1
  9 11  1  0
  8 12  1  1
 13  6  1  6
 13 14  2  0
 13 15  2  0
 13 16  1  0
 16 17  1  6
 16 18  1  0
  3 19  1  0
 19 20  1  0
 20 21  2  0
 21 22  1  0
 22 23  2  0
 23 24  1  0
 24 25  2  0
 24 26  1  0
 26 27  3  0
 22 28  1  0
  9  1  1  0
  7  2  1  0
 25 20  1  0
M  END
$$$$
