_rank13
     RDKit          3D

 20 22  0  0  0  0  0  0  0  0999 V2000
   26.0597   -0.3137  -12.9601 O   0  0  0  0  0  0  0  0  0  0  0  0
   26.5651    0.1671  -11.9286 N   0  0  0  0  0  4  0  0  0  0  0  0
   27.7018    0.9227  -12.0732 O   0  0  0  0  0  1  0  0  0  0  0  0
   26.0069   -0.0413  -10.6259 C   0  0  0  0  0  0  0  0  0  0  0  0
   24.6947   -0.5370  -10.5307 C   0  0  0  0  0  0  0  0  0  0  0  0
   23.9643   -0.8453  -11.6965 N   0  0  0  0  0  0  0  0  0  0  0  0
   22.7881   -0.2452  -12.2050 C   0  0  0  0  0  0  0  0  0  0  0  0
   21.5273   -0.5366  -11.5268 C   0  0  0  0  0  0  0  0  0  0  0  0
   20.8982    0.2911  -10.6420 C   0  0  0  0  0  0  0  0  0  0  0  0
   19.6860   -0.0102  -10.0350 C   0  0  0  0  0  0  0  0  0  0  0  0
   19.0647   -1.2107  -10.3285 C   0  0  0  0  0  0  0  0  0  0  0  0
   19.6693   -2.0664  -11.2124 C   0  0  0  0  0  0  0  0  0  0  0  0
   20.8645   -1.7483  -11.7992 C   0  0  0  0  0  0  0  0  0  0  0  0
   24.1809   -0.7285   -9.2742 C   0  0  0  0  0  0  0  0  0  0  0  0
   24.9612   -0.4302   -8.1512 C   0  0  0  0  0  0  0  0  0  0  0  0
   26.2384    0.0526   -8.2648 C   0  0  0  0  0  0  0  0  0  0  0  0
   27.2155    0.4243   -7.4231 N   0  0  0  0  0  0  0  0  0  0  0  0
   28.2676    0.8202   -8.0832 O   0  0  0  0  0  0  0  0  0  0  0  0
   28.0026    0.7166   -9.3512 N   0  0  0  0  0  0  0  0  0  0  0  0
   26.7645    0.2481   -9.5304 C   0  0  0  0  0  0  0  0  0  0  0  0
  1  2  2  0
  2  3  1  0
  2  4  1  0
  4  5  2  0
  5  6  1  0
  7  6  1  6
  7  8  1  0
  8  9  2  0
  9 10  1  0
 10 11  2  0
 11 12  1  0
 12 13  2  0
  5 14  1  0
 14 15  2  0
 15 16  1  0
 16 17  2  0
 17 18  1  0
 18 19  1  0
 19 20  2  0
 20  4  1  0
 13  8  1  0
 20 16  1  0
M  CHG  2   2   1   3  -1
M  END
$$$$
