_rank11
     RDKit          3D

 20 22  0  0  0  0  0  0  0  0999 V2000
   25.7626    0.1167  -13.1220 O   0  0  0  0  0  0  0  0  0  0  0  0
   26.4593    0.1527  -12.0905 N   0  0  0  0  0  4  0  0  0  0  0  0
   27.8052    0.3751  -12.2428 O   0  0  0  0  0  1  0  0  0  0  0  0
   25.9090   -0.0273  -10.7803 C   0  0  0  0  0  0  0  0  0  0  0  0
   24.5298   -0.2722  -10.6608 C   0  0  0  0  0  0  0  0  0  0  0  0
   23.7212   -0.3647  -11.8121 N   0  0  0  0  0  0  0  0  0  0  0  0
   22.4172    0.1367  -12.0370 C   0  0  0  0  0  0  0  0  0  0  0  0
   21.2973   -0.5865  -11.4394 C   0  0  0  0  0  0  0  0  0  0  0  0
   21.1079   -1.9371  -11.5011 C   0  0  0  0  0  0  0  0  0  0  0  0
   20.0423   -2.5929  -10.8985 C   0  0  0  0  0  0  0  0  0  0  0  0
   19.1090   -1.8557  -10.1922 C   0  0  0  0  0  0  0  0  0  0  0  0
   19.2680   -0.4967  -10.1107 C   0  0  0  0  0  0  0  0  0  0  0  0
   20.3267    0.1287  -10.7126 C   0  0  0  0  0  0  0  0  0  0  0  0
   24.0248   -0.4412   -9.3975 C   0  0  0  0  0  0  0  0  0  0  0  0
   24.8792   -0.3652   -8.2915 C   0  0  0  0  0  0  0  0  0  0  0  0
   26.2211   -0.1253   -8.4287 C   0  0  0  0  0  0  0  0  0  0  0  0
   27.2746    0.0030   -7.6070 N   0  0  0  0  0  0  0  0  0  0  0  0
   28.3636    0.2340   -8.2854 O   0  0  0  0  0  0  0  0  0  0  0  0
   28.0478    0.2610   -9.5456 N   0  0  0  0  0  0  0  0  0  0  0  0
   26.7386    0.0458   -9.7013 C   0  0  0  0  0  0  0  0  0  0  0  0
  1  2  2  0
  2  3  1  0
  2  4  1  0
  4  5  2  0
  5  6  1  0
  7  6  1  6
  7  8  1  0
  8  9  2  0
  9 10  1  0
 10 11  2  0
 11 12  1  0
 12 13  2  0
  5 14  1  0
 14 15  2  0
 15 16  1  0
 16 17  2  0
 17 18  1  0
 18 19  1  0
 19 20  2  0
 20  4  1  0
 13  8  1  0
 20 16  1  0
M  CHG  2   2   1   3  -1
M  END
$$$$
