_rank3
     RDKit          3D

 28 30  0  0  0  0  0  0  0  0999 V2000
   24.9096   -0.1183  -12.5229 C   0  0  0  0  0  0  0  0  0  0  0  0
   24.8293   -0.2356  -11.0530 C   0  0  0  0  0  0  0  0  0  0  0  0
   23.7088   -0.3712  -10.1791 C   0  0  0  0  0  0  0  0  0  0  0  0
   23.9427   -0.4677   -8.8060 C   0  0  0  0  0  0  0  0  0  0  0  0
   25.2496   -0.4258   -8.3743 C   0  0  0  0  0  0  0  0  0  0  0  0
   26.3356   -0.2959   -9.2001 C   0  0  0  0  0  0  0  0  0  0  0  0
   26.0936   -0.2014  -10.5544 C   0  0  0  0  0  0  0  0  0  0  0  0
   27.0862   -0.0546  -11.6669 C   0  0  1  0  0  0  0  0  0  0  0  0
   26.2031    0.5916  -12.7464 C   0  0  2  0  0  0  0  0  0  0  0  0
   26.0148    1.9342  -12.4037 F   0  0  0  0  0  0  0  0  0  0  0  0
   26.7289    0.4449  -13.9930 F   0  0  0  0  0  0  0  0  0  0  0  0
   28.0597    0.9002  -11.3863 O   0  0  0  0  0  0  0  0  0  0  0  0
   27.9652   -0.2515   -8.5842 S   0  0  2  0  0  6  0  0  0  0  0  0
   28.0415    0.2949   -7.1866 O   0  0  0  0  0  0  0  0  0  0  0  0
   28.8744    0.5261   -9.5110 O   0  0  0  0  0  0  0  0  0  0  0  0
   28.5448   -1.9498   -8.4852 C   0  0  2  0  0  0  0  0  0  0  0  0
   28.5262   -2.4515   -9.7552 F   0  0  0  0  0  0  0  0  0  0  0  0
   27.7474   -2.6754   -7.6198 F   0  0  0  0  0  0  0  0  0  0  0  0
   22.5119   -0.3983  -10.7143 O   0  0  0  0  0  0  0  0  0  0  0  0
   21.2320   -0.6410  -10.7323 C   0  0  0  0  0  0  0  0  0  0  0  0
   20.7056   -1.7436  -11.4657 C   0  0  0  0  0  0  0  0  0  0  0  0
   19.3926   -2.0134  -11.4992 C   0  0  0  0  0  0  0  0  0  0  0  0
   18.5001   -1.2269  -10.8198 C   0  0  0  0  0  0  0  0  0  0  0  0
   18.9579   -0.1526  -10.0984 C   0  0  0  0  0  0  0  0  0  0  0  0
   20.3029    0.1386  -10.0534 C   0  0  0  0  0  0  0  0  0  0  0  0
   18.0352    0.6996   -9.3677 C   0  0  0  0  0  0  0  0  0  0  0  0
   17.2990    1.3647   -8.7717 N   0  0  0  0  0  0  0  0  0  0  0  0
   18.9378   -3.0748  -12.2117 F   0  0  0  0  0  0  0  0  0  0  0  0
  1  2  1  1
  2  3  2  0
  3  4  1  0
  4  5  2  0
  5  6  1  0
  6  7  2  0
  7  8  1  0
  8  9  1  0
  9 10  1  1
  9 11  1  0
  8 12  1  1
 13  6  1  6
 13 14  2  0
 13 15  2  0
 13 16  1  0
 16 17  1  6
 16 18  1  0
  3 19  1  0
 19 20  1  0
 20 21  2  0
 21 22  1  0
 22 23  2  0
 23 24  1  0
 24 25  2  0
 24 26  1  0
 26 27  3  0
 22 28  1  0
  9  1  1  0
  7  2  1  0
 25 20  1  0
M  END
$$$$
