_rank14
     RDKit          3D

 20 22  0  0  0  0  0  0  0  0999 V2000
   24.5273    0.8503  -12.6833 O   0  0  0  0  0  0  0  0  0  0  0  0
   25.2377   -0.0475  -12.1934 N   0  0  0  0  0  4  0  0  0  0  0  0
   25.6834   -1.0338  -13.0375 O   0  0  0  0  0  1  0  0  0  0  0  0
   25.5944   -0.0794  -10.8064 C   0  0  0  0  0  0  0  0  0  0  0  0
   24.5890   -0.3518   -9.8622 C   0  0  0  0  0  0  0  0  0  0  0  0
   23.2694   -0.6141  -10.2836 N   0  0  0  0  0  0  0  0  0  0  0  0
   22.0516   -0.4411   -9.5840 C   0  0  0  0  0  0  0  0  0  0  0  0
   20.8164   -0.4151  -10.3639 C   0  0  0  0  0  0  0  0  0  0  0  0
   19.5613   -0.2651   -9.8481 C   0  0  0  0  0  0  0  0  0  0  0  0
   18.4108   -0.2203  -10.6247 C   0  0  0  0  0  0  0  0  0  0  0  0
   18.5198   -0.3330  -11.9991 C   0  0  0  0  0  0  0  0  0  0  0  0
   19.7653   -0.4857  -12.5506 C   0  0  0  0  0  0  0  0  0  0  0  0
   20.8861   -0.5268  -11.7655 C   0  0  0  0  0  0  0  0  0  0  0  0
   24.9529   -0.3772   -8.5407 C   0  0  0  0  0  0  0  0  0  0  0  0
   26.2839   -0.1355   -8.1815 C   0  0  0  0  0  0  0  0  0  0  0  0
   27.2495    0.1286   -9.1169 C   0  0  0  0  0  0  0  0  0  0  0  0
   28.5654    0.3929   -9.1077 N   0  0  0  0  0  0  0  0  0  0  0  0
   29.0086    0.5721  -10.3205 O   0  0  0  0  0  0  0  0  0  0  0  0
   28.0057    0.4305  -11.1345 N   0  0  0  0  0  0  0  0  0  0  0  0
   26.8898    0.1553  -10.4536 C   0  0  0  0  0  0  0  0  0  0  0  0
  1  2  2  0
  2  3  1  0
  2  4  1  0
  4  5  2  0
  5  6  1  0
  7  6  1  6
  7  8  1  0
  8  9  2  0
  9 10  1  0
 10 11  2  0
 11 12  1  0
 12 13  2  0
  5 14  1  0
 14 15  2  0
 15 16  1  0
 16 17  2  0
 17 18  1  0
 18 19  1  0
 19 20  2  0
 20  4  1  0
 13  8  1  0
 20 16  1  0
M  CHG  2   2   1   3  -1
M  END
$$$$
