_rank1
     RDKit          3D

 28 30  0  0  0  0  0  0  0  0999 V2000
   24.9823    0.0434  -12.4993 C   0  0  0  0  0  0  0  0  0  0  0  0
   24.9014   -0.3867  -11.0889 C   0  0  0  0  0  0  0  0  0  0  0  0
   23.7786   -0.6586  -10.2504 C   0  0  0  0  0  0  0  0  0  0  0  0
   24.0122   -1.0615   -8.9341 C   0  0  0  0  0  0  0  0  0  0  0  0
   25.3211   -1.1731   -8.5210 C   0  0  0  0  0  0  0  0  0  0  0  0
   26.4093   -0.9157   -9.3134 C   0  0  0  0  0  0  0  0  0  0  0  0
   26.1675   -0.5185  -10.6116 C   0  0  0  0  0  0  0  0  0  0  0  0
   27.1623   -0.1782  -11.6788 C   0  0  1  0  0  0  0  0  0  0  0  0
   26.3069    0.7261  -12.5806 C   0  0  2  0  0  0  0  0  0  0  0  0
   26.1826    1.9692  -11.9525 F   0  0  0  0  0  0  0  0  0  0  0  0
   26.8212    0.8303  -13.8363 F   0  0  0  0  0  0  0  0  0  0  0  0
   28.1803    0.6481  -11.2109 O   0  0  0  0  0  0  0  0  0  0  0  0
   28.0411   -1.0794   -8.7243 S   0  0  2  0  0  6  0  0  0  0  0  0
   28.9884   -1.5849   -9.7754 O   0  0  0  0  0  0  0  0  0  0  0  0
   28.0883   -1.9616   -7.4955 O   0  0  0  0  0  0  0  0  0  0  0  0
   28.6180    0.5653   -8.2861 C   0  0  2  0  0  0  0  0  0  0  0  0
   27.5310    1.2637   -7.8436 F   0  0  0  0  0  0  0  0  0  0  0  0
   29.2215    1.1642   -9.3762 F   0  0  0  0  0  0  0  0  0  0  0  0
   22.5801   -0.5150  -10.7628 O   0  0  0  0  0  0  0  0  0  0  0  0
   21.2791   -0.5837  -10.7600 C   0  0  0  0  0  0  0  0  0  0  0  0
   20.6032   -1.6995  -11.3335 C   0  0  0  0  0  0  0  0  0  0  0  0
   19.2656   -1.7927  -11.3427 C   0  0  0  0  0  0  0  0  0  0  0  0
   18.4926   -0.8042  -10.7932 C   0  0  0  0  0  0  0  0  0  0  0  0
   19.0965    0.2914  -10.2283 C   0  0  0  0  0  0  0  0  0  0  0  0
   20.4688    0.4028  -10.2104 C   0  0  0  0  0  0  0  0  0  0  0  0
   18.3028    1.3557   -9.6378 C   0  0  0  0  0  0  0  0  0  0  0  0
   17.6859    2.2156   -9.1692 N   0  0  0  0  0  0  0  0  0  0  0  0
   18.6664   -2.8748  -11.9005 F   0  0  0  0  0  0  0  0  0  0  0  0
  1  2  1  1
  2  3  2  0
  3  4  1  0
  4  5  2  0
  5  6  1  0
  6  7  2  0
  7  8  1  0
  8  9  1  0
  9 10  1  1
  9 11  1  0
  8 12  1  1
 13  6  1  6
 13 14  2  0
 13 15  2  0
 13 16  1  0
 16 17  1  6
 16 18  1  0
  3 19  1  0
 19 20  1  0
 20 21  2  0
 21 22  1  0
 22 23  2  0
 23 24  1  0
 24 25  2  0
 24 26  1  0
 26 27  3  0
 22 28  1  0
  9  1  1  0
  7  2  1  0
 25 20  1  0
M  END
$$$$
