_rank15
     RDKit          3D

 28 30  0  0  0  0  0  0  0  0999 V2000
   24.9266   -0.1655  -12.5055 C   0  0  0  0  0  0  0  0  0  0  0  0
   24.8345   -0.2517  -11.0342 C   0  0  0  0  0  0  0  0  0  0  0  0
   23.7088   -0.3931  -10.1679 C   0  0  0  0  0  0  0  0  0  0  0  0
   23.9313   -0.4534   -8.7908 C   0  0  0  0  0  0  0  0  0  0  0  0
   25.2326   -0.3722   -8.3480 C   0  0  0  0  0  0  0  0  0  0  0  0
   26.3235   -0.2361   -9.1664 C   0  0  0  0  0  0  0  0  0  0  0  0
   26.0927   -0.1776  -10.5246 C   0  0  0  0  0  0  0  0  0  0  0  0
   27.0928   -0.0332  -11.6309 C   0  0  1  0  0  0  0  0  0  0  0  0
   26.2060    0.5684  -12.7329 C   0  0  2  0  0  0  0  0  0  0  0  0
   25.9841    1.9137  -12.4225 F   0  0  0  0  0  0  0  0  0  0  0  0
   26.7473    0.4058  -13.9709 F   0  0  0  0  0  0  0  0  0  0  0  0
   28.0417    0.9495  -11.3629 O   0  0  0  0  0  0  0  0  0  0  0  0
   27.9455   -0.1409   -8.5365 S   0  0  2  0  0  6  0  0  0  0  0  0
   27.9778    0.0619   -7.0480 O   0  0  0  0  0  0  0  0  0  0  0  0
   28.7377    0.9402   -9.2391 O   0  0  0  0  0  0  0  0  0  0  0  0
   28.7292   -1.7300   -8.8377 C   0  0  2  0  0  0  0  0  0  0  0  0
   29.7287   -1.8619   -7.9163 F   0  0  0  0  0  0  0  0  0  0  0  0
   29.1981   -1.7909  -10.1368 F   0  0  0  0  0  0  0  0  0  0  0  0
   22.5182   -0.4594  -10.7136 O   0  0  0  0  0  0  0  0  0  0  0  0
   21.2272   -0.6343  -10.7124 C   0  0  0  0  0  0  0  0  0  0  0  0
   20.6482   -1.8214  -11.2475 C   0  0  0  0  0  0  0  0  0  0  0  0
   19.3228   -2.0241  -11.2575 C   0  0  0  0  0  0  0  0  0  0  0  0
   18.4683   -1.0834  -10.7461 C   0  0  0  0  0  0  0  0  0  0  0  0
   18.9772    0.0773  -10.2191 C   0  0  0  0  0  0  0  0  0  0  0  0
   20.3356    0.3014  -10.2010 C   0  0  0  0  0  0  0  0  0  0  0  0
   18.0956    1.0934   -9.6696 C   0  0  0  0  0  0  0  0  0  0  0  0
   17.4084    1.9153   -9.2317 N   0  0  0  0  0  0  0  0  0  0  0  0
   18.8174   -3.1708  -11.7780 F   0  0  0  0  0  0  0  0  0  0  0  0
  1  2  1  1
  2  3  2  0
  3  4  1  0
  4  5  2  0
  5  6  1  0
  6  7  2  0
  7  8  1  0
  8  9  1  0
  9 10  1  1
  9 11  1  0
  8 12  1  1
 13  6  1  6
 13 14  2  0
 13 15  2  0
 13 16  1  0
 16 17  1  1
 16 18  1  0
  3 19  1  0
 19 20  1  0
 20 21  2  0
 21 22  1  0
 22 23  2  0
 23 24  1  0
 24 25  2  0
 24 26  1  0
 26 27  3  0
 22 28  1  0
  9  1  1  0
  7  2  1  0
 25 20  1  0
M  END
$$$$
