_rank20
     RDKit          3D

 20 22  0  0  0  0  0  0  0  0999 V2000
   22.6336   -1.8359  -12.7647 O   0  0  0  0  0  0  0  0  0  0  0  0
   21.5410   -1.7273  -12.1772 N   0  0  0  0  0  4  0  0  0  0  0  0
   20.5017   -2.5044  -12.6241 O   0  0  0  0  0  1  0  0  0  0  0  0
   21.3428   -0.8353  -11.0741 C   0  0  0  0  0  0  0  0  0  0  0  0
   22.4740   -0.3274  -10.4115 C   0  0  0  0  0  0  0  0  0  0  0  0
   23.7693   -0.6721  -10.8489 N   0  0  0  0  0  0  0  0  0  0  0  0
   24.9266    0.1352  -10.9546 C   0  0  0  0  0  0  0  0  0  0  0  0
   26.1367   -0.3172  -10.2724 C   0  0  0  0  0  0  0  0  0  0  0  0
   26.1782   -0.8747   -9.0270 C   0  0  0  0  0  0  0  0  0  0  0  0
   27.3468   -1.3161   -8.4202 C   0  0  0  0  0  0  0  0  0  0  0  0
   28.5466   -1.1926   -9.0974 C   0  0  0  0  0  0  0  0  0  0  0  0
   28.5417   -0.6362  -10.3501 C   0  0  0  0  0  0  0  0  0  0  0  0
   27.3773   -0.2082  -10.9290 C   0  0  0  0  0  0  0  0  0  0  0  0
   22.2607    0.5243   -9.3587 C   0  0  0  0  0  0  0  0  0  0  0  0
   20.9527    0.8531   -8.9845 C   0  0  0  0  0  0  0  0  0  0  0  0
   19.8628    0.3472   -9.6429 C   0  0  0  0  0  0  0  0  0  0  0  0
   18.5289    0.4572   -9.5421 N   0  0  0  0  0  0  0  0  0  0  0  0
   17.9363   -0.2624  -10.4533 O   0  0  0  0  0  0  0  0  0  0  0  0
   18.8579   -0.8484  -11.1575 N   0  0  0  0  0  0  0  0  0  0  0  0
   20.0702   -0.5131  -10.7076 C   0  0  0  0  0  0  0  0  0  0  0  0
  1  2  2  0
  2  3  1  0
  2  4  1  0
  4  5  2  0
  5  6  1  0
  7  6  1  6
  7  8  1  0
  8  9  2  0
  9 10  1  0
 10 11  2  0
 11 12  1  0
 12 13  2  0
  5 14  1  0
 14 15  2  0
 15 16  1  0
 16 17  2  0
 17 18  1  0
 18 19  1  0
 19 20  2  0
 20  4  1  0
 13  8  1  0
 20 16  1  0
M  CHG  2   2   1   3  -1
M  END
$$$$
