_rank16
     RDKit          3D

 28 30  0  0  0  0  0  0  0  0999 V2000
   24.8360   -0.0389  -12.6209 C   0  0  0  0  0  0  0  0  0  0  0  0
   24.7757   -0.1932  -11.1535 C   0  0  0  0  0  0  0  0  0  0  0  0
   23.6678   -0.3589  -10.2689 C   0  0  0  0  0  0  0  0  0  0  0  0
   23.9203   -0.4875   -8.9017 C   0  0  0  0  0  0  0  0  0  0  0  0
   25.2324   -0.4466   -8.4859 C   0  0  0  0  0  0  0  0  0  0  0  0
   26.3065   -0.2880   -9.3222 C   0  0  0  0  0  0  0  0  0  0  0  0
   26.0461   -0.1619  -10.6705 C   0  0  0  0  0  0  0  0  0  0  0  0
   27.0231    0.0199  -11.7917 C   0  0  1  0  0  0  0  0  0  0  0  0
   26.1214    0.6860  -12.8433 C   0  0  2  0  0  0  0  0  0  0  0  0
   25.9279    2.0182  -12.4650 F   0  0  0  0  0  0  0  0  0  0  0  0
   26.6319    0.5742  -14.0999 F   0  0  0  0  0  0  0  0  0  0  0  0
   27.9933    0.9747  -11.5000 O   0  0  0  0  0  0  0  0  0  0  0  0
   27.9436   -0.2467   -8.7264 S   0  0  2  0  0  6  0  0  0  0  0  0
   28.0139   -0.2452   -7.2255 O   0  0  0  0  0  0  0  0  0  0  0  0
   28.6987    0.9343   -9.2966 O   0  0  0  0  0  0  0  0  0  0  0  0
   28.7440   -1.7652   -9.2590 C   0  0  2  0  0  0  0  0  0  0  0  0
   27.8767   -2.7864   -8.9941 F   0  0  0  0  0  0  0  0  0  0  0  0
   29.9541   -1.9190   -8.6085 F   0  0  0  0  0  0  0  0  0  0  0  0
   22.4642   -0.3817  -10.7892 O   0  0  0  0  0  0  0  0  0  0  0  0
   21.1734   -0.5572  -10.7710 C   0  0  0  0  0  0  0  0  0  0  0  0
   20.5930   -1.7747  -11.2309 C   0  0  0  0  0  0  0  0  0  0  0  0
   19.2678   -1.9786  -11.2219 C   0  0  0  0  0  0  0  0  0  0  0  0
   18.4149   -1.0094  -10.7638 C   0  0  0  0  0  0  0  0  0  0  0  0
   18.9252    0.1812  -10.3100 C   0  0  0  0  0  0  0  0  0  0  0  0
   20.2835    0.4070  -10.3123 C   0  0  0  0  0  0  0  0  0  0  0  0
   18.0453    1.2278   -9.8181 C   0  0  0  0  0  0  0  0  0  0  0  0
   17.3422    2.0679   -9.4447 N   0  0  0  0  0  0  0  0  0  0  0  0
   18.7610   -3.1548  -11.6700 F   0  0  0  0  0  0  0  0  0  0  0  0
  1  2  1  1
  2  3  2  0
  3  4  1  0
  4  5  2  0
  5  6  1  0
  6  7  2  0
  7  8  1  0
  8  9  1  0
  9 10  1  1
  9 11  1  0
  8 12  1  1
 13  6  1  1
 13 14  2  0
 13 15  2  0
 13 16  1  0
 16 17  1  1
 16 18  1  0
  3 19  1  0
 19 20  1  0
 20 21  2  0
 21 22  1  0
 22 23  2  0
 23 24  1  0
 24 25  2  0
 24 26  1  0
 26 27  3  0
 22 28  1  0
  9  1  1  0
  7  2  1  0
 25 20  1  0
M  END
$$$$
