_rank20
     RDKit          3D

 21 23  0  0  0  0  0  0  0  0999 V2000
   17.1596    0.4585  -11.9699 C   0  0  0  0  0  0  0  0  0  0  0  0
   18.3955   -0.0834  -11.3505 C   0  0  0  0  0  0  0  0  0  0  0  0
   18.9987   -1.2446  -11.7750 C   0  0  0  0  0  0  0  0  0  0  0  0
   20.1423   -1.7198  -11.1809 C   0  0  0  0  0  0  0  0  0  0  0  0
   20.6977   -1.0310  -10.1493 C   0  0  0  0  0  0  0  0  0  0  0  0
   21.9399   -1.3861   -9.4219 C   0  0  0  0  0  0  0  0  0  0  0  0
   23.1218   -1.2394  -10.2079 N   0  0  0  0  0  0  0  0  0  0  0  0
   24.4190   -0.8593   -9.8376 C   0  0  0  0  0  0  0  0  0  0  0  0
   24.8764   -0.8460   -8.5394 C   0  0  0  0  0  0  0  0  0  0  0  0
   26.1645   -0.4512   -8.1793 C   0  0  0  0  0  0  0  0  0  0  0  0
   27.0303   -0.0530   -9.1598 C   0  0  0  0  0  0  0  0  0  0  0  0
   28.3038    0.3723   -9.1559 N   0  0  0  0  0  0  0  0  0  0  0  0
   28.6469    0.6209  -10.3926 O   0  0  0  0  0  0  0  0  0  0  0  0
   27.6498    0.3744  -11.1953 N   0  0  0  0  0  0  0  0  0  0  0  0
   26.5815   -0.0620  -10.4611 C   0  0  0  0  0  0  0  0  0  0  0  0
   25.3186   -0.4460  -10.8403 C   0  0  0  0  0  0  0  0  0  0  0  0
   24.9172   -0.4229  -12.2212 N   0  0  0  0  0  4  0  0  0  0  0  0
   23.7381   -0.6359  -12.5646 O   0  0  0  0  0  0  0  0  0  0  0  0
   25.8364   -0.1693  -13.2037 O   0  0  0  0  0  1  0  0  0  0  0  0
   20.0910    0.1617   -9.7011 C   0  0  0  0  0  0  0  0  0  0  0  0
   18.9572    0.6264  -10.2942 C   0  0  0  0  0  0  0  0  0  0  0  0
  1  2  1  1
  2  3  2  0
  3  4  1  0
  4  5  2  0
  5  6  1  0
  6  7  1  6
  7  8  1  0
  8  9  1  0
  9 10  2  0
 10 11  1  0
 11 12  2  0
 12 13  1  0
 13 14  1  0
 14 15  2  0
 15 16  1  0
 16 17  1  0
 17 18  2  0
 17 19  1  0
  5 20  1  0
 20 21  2  0
 21  2  1  0
 16  8  2  0
 15 11  1  0
M  CHG  2  17   1  19  -1
M  END
$$$$
