_rank8
     RDKit          3D

 21 23  0  0  0  0  0  0  0  0999 V2000
   17.5038    1.3115  -11.0555 C   0  0  0  0  0  0  0  0  0  0  0  0
   18.7793    0.5833  -10.8379 C   0  0  0  0  0  0  0  0  0  0  0  0
   19.7316    0.9944   -9.9342 C   0  0  0  0  0  0  0  0  0  0  0  0
   20.9020    0.2982   -9.7559 C   0  0  0  0  0  0  0  0  0  0  0  0
   21.1315   -0.8254  -10.4853 C   0  0  0  0  0  0  0  0  0  0  0  0
   22.3209   -1.7058  -10.3943 C   0  0  0  0  0  0  0  0  0  0  0  0
   23.5341   -1.0667  -10.7887 N   0  0  0  0  0  0  0  0  0  0  0  0
   24.6469   -0.6798  -10.0295 C   0  0  0  0  0  0  0  0  0  0  0  0
   24.7033   -0.7488   -8.6559 C   0  0  0  0  0  0  0  0  0  0  0  0
   25.8097   -0.3467   -7.9081 C   0  0  0  0  0  0  0  0  0  0  0  0
   26.9047    0.1450   -8.5630 C   0  0  0  0  0  0  0  0  0  0  0  0
   28.0998    0.6029   -8.1573 N   0  0  0  0  0  0  0  0  0  0  0  0
   28.7774    0.9500   -9.2199 O   0  0  0  0  0  0  0  0  0  0  0  0
   28.0716    0.7360  -10.2947 N   0  0  0  0  0  0  0  0  0  0  0  0
   26.8570    0.2186   -9.9367 C   0  0  0  0  0  0  0  0  0  0  0  0
   25.7799   -0.1705  -10.6946 C   0  0  0  0  0  0  0  0  0  0  0  0
   25.7992   -0.0577  -12.1284 N   0  0  0  0  0  4  0  0  0  0  0  0
   26.7368    0.5024  -12.7290 O   0  0  0  0  0  0  0  0  0  0  0  0
   24.7698   -0.5647  -12.8751 O   0  0  0  0  0  1  0  0  0  0  0  0
   20.1651   -1.2604  -11.4172 C   0  0  0  0  0  0  0  0  0  0  0  0
   19.0076   -0.5650  -11.5892 C   0  0  0  0  0  0  0  0  0  0  0  0
  1  2  1  1
  2  3  2  0
  3  4  1  0
  4  5  2  0
  5  6  1  0
  6  7  1  6
  7  8  1  0
  8  9  1  0
  9 10  2  0
 10 11  1  0
 11 12  2  0
 12 13  1  0
 13 14  1  0
 14 15  2  0
 15 16  1  0
 16 17  1  0
 17 18  2  0
 17 19  1  0
  5 20  1  0
 20 21  2  0
 21  2  1  0
 16  8  2  0
 15 11  1  0
M  CHG  2  17   1  19  -1
M  END
$$$$
