_rank4
     RDKit          3D

 21 23  0  0  0  0  0  0  0  0999 V2000
   18.0349   -3.6605  -11.8818 C   0  0  0  0  0  0  0  0  0  0  0  0
   19.0746   -2.6947  -11.4447 C   0  0  0  0  0  0  0  0  0  0  0  0
   19.7083   -2.7770  -10.2264 C   0  0  0  0  0  0  0  0  0  0  0  0
   20.6666   -1.8675   -9.8513 C   0  0  0  0  0  0  0  0  0  0  0  0
   21.0032   -0.8600  -10.6992 C   0  0  0  0  0  0  0  0  0  0  0  0
   22.0325    0.1808  -10.4642 C   0  0  0  0  0  0  0  0  0  0  0  0
   23.3628   -0.2646  -10.7250 N   0  0  0  0  0  0  0  0  0  0  0  0
   24.4955   -0.2789   -9.8996 C   0  0  0  0  0  0  0  0  0  0  0  0
   24.4499   -0.4328   -8.5325 C   0  0  0  0  0  0  0  0  0  0  0  0
   25.5817   -0.4301   -7.7178 C   0  0  0  0  0  0  0  0  0  0  0  0
   26.8099   -0.2664   -8.2960 C   0  0  0  0  0  0  0  0  0  0  0  0
   28.0626   -0.2203   -7.8152 N   0  0  0  0  0  0  0  0  0  0  0  0
   28.8732   -0.0444   -8.8256 O   0  0  0  0  0  0  0  0  0  0  0  0
   28.1981    0.0252   -9.9385 N   0  0  0  0  0  0  0  0  0  0  0  0
   26.8652   -0.1108   -9.6626 C   0  0  0  0  0  0  0  0  0  0  0  0
   25.7657   -0.1097  -10.4854 C   0  0  0  0  0  0  0  0  0  0  0  0
   25.9002    0.0656  -11.9067 N   0  0  0  0  0  4  0  0  0  0  0  0
   26.8749   -0.3922  -12.5341 O   0  0  0  0  0  0  0  0  0  0  0  0
   24.9496    0.7551  -12.6106 O   0  0  0  0  0  1  0  0  0  0  0  0
   20.3621   -0.7609  -11.9525 C   0  0  0  0  0  0  0  0  0  0  0  0
   19.4126   -1.6656  -12.3174 C   0  0  0  0  0  0  0  0  0  0  0  0
  1  2  1  1
  2  3  2  0
  3  4  1  0
  4  5  2  0
  5  6  1  0
  6  7  1  6
  7  8  1  0
  8  9  1  0
  9 10  2  0
 10 11  1  0
 11 12  2  0
 12 13  1  0
 13 14  1  0
 14 15  2  0
 15 16  1  0
 16 17  1  0
 17 18  2  0
 17 19  1  0
  5 20  1  0
 20 21  2  0
 21  2  1  0
 16  8  2  0
 15 11  1  0
M  CHG  2  17   1  19  -1
M  END
$$$$
