_rank11
     RDKit          3D

 21 23  0  0  0  0  0  0  0  0999 V2000
   17.9097    1.3532  -10.3360 C   0  0  0  0  0  0  0  0  0  0  0  0
   19.1030    0.5009  -10.5690 C   0  0  0  0  0  0  0  0  0  0  0  0
   19.6375   -0.3195   -9.6026 C   0  0  0  0  0  0  0  0  0  0  0  0
   20.7427   -1.0966   -9.8497 C   0  0  0  0  0  0  0  0  0  0  0  0
   21.3271   -1.0604  -11.0763 C   0  0  0  0  0  0  0  0  0  0  0  0
   22.4996   -1.8541  -11.5160 C   0  0  0  0  0  0  0  0  0  0  0  0
   23.7228   -1.1195  -11.5003 N   0  0  0  0  0  0  0  0  0  0  0  0
   24.6347   -0.8934  -10.4602 C   0  0  0  0  0  0  0  0  0  0  0  0
   24.4367   -1.3012   -9.1605 C   0  0  0  0  0  0  0  0  0  0  0  0
   25.3432   -1.0578   -8.1290 C   0  0  0  0  0  0  0  0  0  0  0  0
   26.4955   -0.3778   -8.4107 C   0  0  0  0  0  0  0  0  0  0  0  0
   27.5486    0.0084   -7.6729 N   0  0  0  0  0  0  0  0  0  0  0  0
   28.3820    0.6349   -8.4613 O   0  0  0  0  0  0  0  0  0  0  0  0
   27.9128    0.6700   -9.6769 N   0  0  0  0  0  0  0  0  0  0  0  0
   26.7017    0.0348   -9.7077 C   0  0  0  0  0  0  0  0  0  0  0  0
   25.8246   -0.1924  -10.7397 C   0  0  0  0  0  0  0  0  0  0  0  0
   26.1044    0.2756  -12.0707 N   0  0  0  0  0  4  0  0  0  0  0  0
   25.3009    0.1043  -13.0080 O   0  0  0  0  0  0  0  0  0  0  0  0
   27.2798    0.9230  -12.3424 O   0  0  0  0  0  1  0  0  0  0  0  0
   20.7917   -0.2236  -12.0786 C   0  0  0  0  0  0  0  0  0  0  0  0
   19.6963    0.5444  -11.8264 C   0  0  0  0  0  0  0  0  0  0  0  0
  1  2  1  1
  2  3  2  0
  3  4  1  0
  4  5  2  0
  5  6  1  0
  6  7  1  6
  7  8  1  0
  8  9  1  0
  9 10  2  0
 10 11  1  0
 11 12  2  0
 12 13  1  0
 13 14  1  0
 14 15  2  0
 15 16  1  0
 16 17  1  0
 17 18  2  0
 17 19  1  0
  5 20  1  0
 20 21  2  0
 21  2  1  0
 16  8  2  0
 15 11  1  0
M  CHG  2  17   1  19  -1
M  END
$$$$
