_rank5
     RDKit          3D

 21 23  0  0  0  0  0  0  0  0999 V2000
   17.8606    1.4501  -10.1194 C   0  0  0  0  0  0  0  0  0  0  0  0
   19.1217    0.7370  -10.4445 C   0  0  0  0  0  0  0  0  0  0  0  0
   20.3353    1.3751  -10.5569 C   0  0  0  0  0  0  0  0  0  0  0  0
   21.4847    0.6865  -10.8588 C   0  0  0  0  0  0  0  0  0  0  0  0
   21.4299   -0.6578  -11.0513 C   0  0  0  0  0  0  0  0  0  0  0  0
   22.5746   -1.5510  -11.3512 C   0  0  0  0  0  0  0  0  0  0  0  0
   23.8311   -0.8755  -11.3827 N   0  0  0  0  0  0  0  0  0  0  0  0
   24.7636   -0.6410  -10.3630 C   0  0  0  0  0  0  0  0  0  0  0  0
   24.5357   -0.9151   -9.0334 C   0  0  0  0  0  0  0  0  0  0  0  0
   25.4643   -0.6637   -8.0238 C   0  0  0  0  0  0  0  0  0  0  0  0
   26.6708   -0.1150   -8.3594 C   0  0  0  0  0  0  0  0  0  0  0  0
   27.7568    0.2396   -7.6541 N   0  0  0  0  0  0  0  0  0  0  0  0
   28.6390    0.7192   -8.4910 O   0  0  0  0  0  0  0  0  0  0  0  0
   28.1698    0.6896   -9.7068 N   0  0  0  0  0  0  0  0  0  0  0  0
   26.9073    0.1634   -9.6866 C   0  0  0  0  0  0  0  0  0  0  0  0
   26.0095   -0.0746  -10.6981 C   0  0  0  0  0  0  0  0  0  0  0  0
   26.3240    0.2493  -12.0637 N   0  0  0  0  0  4  0  0  0  0  0  0
   25.5012    0.0780  -12.9841 O   0  0  0  0  0  0  0  0  0  0  0  0
   27.5546    0.7542  -12.3880 O   0  0  0  0  0  1  0  0  0  0  0  0
   20.1927   -1.3276  -10.9405 C   0  0  0  0  0  0  0  0  0  0  0  0
   19.0573   -0.6385  -10.6416 C   0  0  0  0  0  0  0  0  0  0  0  0
  1  2  1  1
  2  3  2  0
  3  4  1  0
  4  5  2  0
  5  6  1  0
  6  7  1  6
  7  8  1  0
  8  9  1  0
  9 10  2  0
 10 11  1  0
 11 12  2  0
 12 13  1  0
 13 14  1  0
 14 15  2  0
 15 16  1  0
 16 17  1  0
 17 18  2  0
 17 19  1  0
  5 20  1  0
 20 21  2  0
 21  2  1  0
 16  8  2  0
 15 11  1  0
M  CHG  2  17   1  19  -1
M  END
$$$$
