_rank16
     RDKit          3D

 21 23  0  0  0  0  0  0  0  0999 V2000
   18.8881    1.6727   -9.1997 C   0  0  0  0  0  0  0  0  0  0  0  0
   19.8020    0.7040   -9.8563 C   0  0  0  0  0  0  0  0  0  0  0  0
   19.7145   -0.6556   -9.6655 C   0  0  0  0  0  0  0  0  0  0  0  0
   20.5755   -1.5261  -10.2880 C   0  0  0  0  0  0  0  0  0  0  0  0
   21.5387   -1.0401  -11.1147 C   0  0  0  0  0  0  0  0  0  0  0  0
   22.5228   -1.8387  -11.8840 C   0  0  0  0  0  0  0  0  0  0  0  0
   23.8417   -1.2949  -11.8588 N   0  0  0  0  0  0  0  0  0  0  0  0
   24.7014   -1.0433  -10.7808 C   0  0  0  0  0  0  0  0  0  0  0  0
   24.5432   -1.5879   -9.5266 C   0  0  0  0  0  0  0  0  0  0  0  0
   25.3953   -1.3191   -8.4558 C   0  0  0  0  0  0  0  0  0  0  0  0
   26.4492   -0.4696   -8.6489 C   0  0  0  0  0  0  0  0  0  0  0  0
   27.4310   -0.0142   -7.8545 N   0  0  0  0  0  0  0  0  0  0  0  0
   28.1828    0.7851   -8.5649 O   0  0  0  0  0  0  0  0  0  0  0  0
   27.7289    0.8658   -9.7842 N   0  0  0  0  0  0  0  0  0  0  0  0
   26.6148    0.0806   -9.8998 C   0  0  0  0  0  0  0  0  0  0  0  0
   25.7897   -0.1683  -10.9690 C   0  0  0  0  0  0  0  0  0  0  0  0
   26.0212    0.4494  -12.2472 N   0  0  0  0  0  4  0  0  0  0  0  0
   25.2157    1.2651  -12.7363 O   0  0  0  0  0  0  0  0  0  0  0  0
   27.1448    0.1453  -12.9680 O   0  0  0  0  0  1  0  0  0  0  0  0
   21.6425    0.3521  -11.3206 C   0  0  0  0  0  0  0  0  0  0  0  0
   20.7862    1.2090  -10.6997 C   0  0  0  0  0  0  0  0  0  0  0  0
  1  2  1  1
  2  3  2  0
  3  4  1  0
  4  5  2  0
  5  6  1  0
  6  7  1  6
  7  8  1  0
  8  9  1  0
  9 10  2  0
 10 11  1  0
 11 12  2  0
 12 13  1  0
 13 14  1  0
 14 15  2  0
 15 16  1  0
 16 17  1  0
 17 18  2  0
 17 19  1  0
  5 20  1  0
 20 21  2  0
 21  2  1  0
 16  8  2  0
 15 11  1  0
M  CHG  2  17   1  19  -1
M  END
$$$$
