_rank19
     RDKit          3D

 21 23  0  0  0  0  0  0  0  0999 V2000
   18.5958   -1.9351   -9.3776 C   0  0  0  0  0  0  0  0  0  0  0  0
   19.7122   -1.4186  -10.2093 C   0  0  0  0  0  0  0  0  0  0  0  0
   20.1284   -0.1079  -10.1733 C   0  0  0  0  0  0  0  0  0  0  0  0
   21.1652    0.3392  -10.9554 C   0  0  0  0  0  0  0  0  0  0  0  0
   21.8007   -0.5285  -11.7864 C   0  0  0  0  0  0  0  0  0  0  0  0
   22.9511   -0.2189  -12.6689 C   0  0  0  0  0  0  0  0  0  0  0  0
   24.2023   -0.6710  -12.1532 N   0  0  0  0  0  0  0  0  0  0  0  0
   24.7670   -0.5251  -10.8786 C   0  0  0  0  0  0  0  0  0  0  0  0
   24.0658   -0.6776   -9.7040 C   0  0  0  0  0  0  0  0  0  0  0  0
   24.6330   -0.5151   -8.4403 C   0  0  0  0  0  0  0  0  0  0  0  0
   25.9571   -0.1861   -8.3493 C   0  0  0  0  0  0  0  0  0  0  0  0
   26.7892    0.0345   -7.3191 N   0  0  0  0  0  0  0  0  0  0  0  0
   27.9678    0.3160   -7.8094 O   0  0  0  0  0  0  0  0  0  0  0  0
   27.9330    0.2867   -9.1121 N   0  0  0  0  0  0  0  0  0  0  0  0
   26.6661   -0.0306   -9.5189 C   0  0  0  0  0  0  0  0  0  0  0  0
   26.1303   -0.1849  -10.7739 C   0  0  0  0  0  0  0  0  0  0  0  0
   26.9323    0.0008  -11.9534 N   0  0  0  0  0  4  0  0  0  0  0  0
   28.1777   -0.0094  -11.9073 O   0  0  0  0  0  0  0  0  0  0  0  0
   26.3361    0.2023  -13.1693 O   0  0  0  0  0  1  0  0  0  0  0  0
   21.3855   -1.8763  -11.8358 C   0  0  0  0  0  0  0  0  0  0  0  0
   20.3567   -2.3123  -11.0582 C   0  0  0  0  0  0  0  0  0  0  0  0
  1  2  1  1
  2  3  2  0
  3  4  1  0
  4  5  2  0
  5  6  1  0
  6  7  1  6
  7  8  1  0
  8  9  1  0
  9 10  2  0
 10 11  1  0
 11 12  2  0
 12 13  1  0
 13 14  1  0
 14 15  2  0
 15 16  1  0
 16 17  1  0
 17 18  2  0
 17 19  1  0
  5 20  1  0
 20 21  2  0
 21  2  1  0
 16  8  2  0
 15 11  1  0
M  CHG  2  17   1  19  -1
M  END
$$$$
