_rank17
     RDKit          3D

 23 26  0  0  0  0  0  0  0  0999 V2000
   18.0700   -0.5962   -8.9475 Cl  0  0  0  0  0  0  0  0  0  0  0  0
   19.6290   -0.0367   -9.4999 C   0  0  0  0  0  0  0  0  0  0  0  0
   20.0202    1.2365   -9.2067 C   0  0  0  0  0  0  0  0  0  0  0  0
   21.2477    1.6851   -9.6384 C   0  0  0  0  0  0  0  0  0  0  0  0
   22.0723    0.8227  -10.3722 C   0  0  0  0  0  0  0  0  0  0  0  0
   21.6953   -0.4660  -10.6784 C   0  0  0  0  0  0  0  0  0  0  0  0
   22.6427   -1.3041  -11.4604 C   0  0  2  0  0  0  0  0  0  0  0  0
   23.7589   -1.7422  -10.5968 C   0  0  0  0  0  0  0  0  0  0  0  0
   25.1407   -1.4314  -10.9933 C   0  0  2  0  0  0  0  0  0  0  0  0
   25.9937   -0.9587   -9.8615 C   0  0  0  0  0  0  0  0  0  0  0  0
   26.4633   -1.8563   -8.9148 C   0  0  0  0  0  0  0  0  0  0  0  0
   27.2496   -1.5044   -7.8498 C   0  0  0  0  0  0  0  0  0  0  0  0
   27.5894   -0.1763   -7.7193 C   0  0  0  0  0  0  0  0  0  0  0  0
   27.1325    0.7560   -8.6570 C   0  0  0  0  0  0  0  0  0  0  0  0
   27.6119    2.5800   -8.4590 Br  0  0  0  0  0  0  0  0  0  0  0  0
   26.3449    0.3644   -9.7128 C   0  0  0  0  0  0  0  0  0  0  0  0
   25.2789   -0.4788  -12.0658 N   0  0  0  0  0  0  0  0  0  0  0  0
   24.2597   -0.2754  -13.0172 C   0  0  0  0  0  0  0  0  0  0  0  0
   24.2421    0.2607  -14.2439 N   0  0  0  0  0  0  0  0  0  0  0  0
   23.0168    0.1888  -14.6726 N   0  0  0  0  0  0  0  0  0  0  0  0
   22.2794   -0.3788  -13.7393 N   0  0  0  0  0  0  0  0  0  0  0  0
   23.0227   -0.6829  -12.6890 N   0  0  0  0  0  0  0  0  0  0  0  0
   20.4680   -0.8796  -10.2332 C   0  0  0  0  0  0  0  0  0  0  0  0
  1  2  1  0
  2  3  2  0
  3  4  1  0
  4  5  2  0
  5  6  1  0
  7  6  1  1
  8  7  1  6
  8  9  1  0
  9 10  1  1
 10 11  2  0
 11 12  1  0
 12 13  2  0
 13 14  1  0
 14 15  1  0
 14 16  2  0
  9 17  1  0
 17 18  1  0
 18 19  2  0
 19 20  1  0
 20 21  2  0
 21 22  1  0
  6 23  2  0
 23  2  1  0
 22  7  1  0
 16 10  1  0
 22 18  1  0
M  END
$$$$
