_rank4
     RDKit          3D

 23 26  0  0  0  0  0  0  0  0999 V2000
   28.0292    0.4843   -5.9424 Cl  0  0  0  0  0  0  0  0  0  0  0  0
   27.3175   -0.1871   -7.3885 C   0  0  0  0  0  0  0  0  0  0  0  0
   27.2880   -1.5414   -7.5476 C   0  0  0  0  0  0  0  0  0  0  0  0
   26.7288   -2.0785   -8.6846 C   0  0  0  0  0  0  0  0  0  0  0  0
   26.1998   -1.2213   -9.6580 C   0  0  0  0  0  0  0  0  0  0  0  0
   26.2201    0.1484   -9.5160 C   0  0  0  0  0  0  0  0  0  0  0  0
   25.6311    0.9726  -10.6046 C   0  0  2  0  0  0  0  0  0  0  0  0
   24.1991    1.2167  -10.3332 C   0  0  0  0  0  0  0  0  0  0  0  0
   23.1990    0.8239  -11.3376 C   0  0  2  0  0  0  0  0  0  0  0  0
   21.9943    0.1621  -10.7521 C   0  0  0  0  0  0  0  0  0  0  0  0
   21.3096    0.7544   -9.7019 C   0  0  0  0  0  0  0  0  0  0  0  0
   20.1982    0.2144   -9.1110 C   0  0  0  0  0  0  0  0  0  0  0  0
   19.7398   -0.9904   -9.5959 C   0  0  0  0  0  0  0  0  0  0  0  0
   20.4071   -1.6153  -10.6549 C   0  0  0  0  0  0  0  0  0  0  0  0
   19.7597   -3.2738  -11.3077 Br  0  0  0  0  0  0  0  0  0  0  0  0
   21.5198   -1.0419  -11.2221 C   0  0  0  0  0  0  0  0  0  0  0  0
   23.6843   -0.0224  -12.3982 N   0  0  0  0  0  0  0  0  0  0  0  0
   25.0404   -0.0338  -12.7805 C   0  0  0  0  0  0  0  0  0  0  0  0
   25.6798   -0.4376  -13.8853 N   0  0  0  0  0  0  0  0  0  0  0  0
   26.9459   -0.2110  -13.6960 N   0  0  0  0  0  0  0  0  0  0  0  0
   27.1016    0.3226  -12.5010 N   0  0  0  0  0  0  0  0  0  0  0  0
   25.9313    0.4487  -11.8988 N   0  0  0  0  0  0  0  0  0  0  0  0
   26.7839    0.6489   -8.3726 C   0  0  0  0  0  0  0  0  0  0  0  0
  1  2  1  0
  2  3  2  0
  3  4  1  0
  4  5  2  0
  5  6  1  0
  7  6  1  1
  8  7  1  6
  8  9  1  0
  9 10  1  1
 10 11  2  0
 11 12  1  0
 12 13  2  0
 13 14  1  0
 14 15  1  0
 14 16  2  0
  9 17  1  0
 17 18  1  0
 18 19  2  0
 19 20  1  0
 20 21  2  0
 21 22  1  0
  6 23  2  0
 23  2  1  0
 22  7  1  0
 16 10  1  0
 22 18  1  0
M  END
$$$$
