_rank13
     RDKit          3D

 21 23  0  0  0  0  0  0  0  0999 V2000
   18.1136    1.0993   -9.3676 C   0  0  0  0  0  0  0  0  0  0  0  0
   19.2402    0.3406   -9.9673 C   0  0  0  0  0  0  0  0  0  0  0  0
   19.5062   -0.9735   -9.6591 C   0  0  0  0  0  0  0  0  0  0  0  0
   20.5567   -1.6481  -10.2316 C   0  0  0  0  0  0  0  0  0  0  0  0
   21.3561   -1.0092  -11.1259 C   0  0  0  0  0  0  0  0  0  0  0  0
   22.5060   -1.5964  -11.8546 C   0  0  0  0  0  0  0  0  0  0  0  0
   23.7243   -0.8766  -11.6710 N   0  0  0  0  0  0  0  0  0  0  0  0
   24.5271   -0.7229  -10.5325 C   0  0  0  0  0  0  0  0  0  0  0  0
   24.1219   -1.0408   -9.2560 C   0  0  0  0  0  0  0  0  0  0  0  0
   24.9228   -0.8696   -8.1272 C   0  0  0  0  0  0  0  0  0  0  0  0
   26.1814   -0.3588   -8.2832 C   0  0  0  0  0  0  0  0  0  0  0  0
   27.1809   -0.0788   -7.4315 N   0  0  0  0  0  0  0  0  0  0  0  0
   28.1794    0.3969   -8.1282 O   0  0  0  0  0  0  0  0  0  0  0  0
   27.8682    0.4362   -9.3934 N   0  0  0  0  0  0  0  0  0  0  0  0
   26.5951   -0.0370   -9.5561 C   0  0  0  0  0  0  0  0  0  0  0  0
   25.8254   -0.1961  -10.6822 C   0  0  0  0  0  0  0  0  0  0  0  0
   26.3229    0.1694  -11.9813 N   0  0  0  0  0  4  0  0  0  0  0  0
   27.4454    0.6903  -12.1304 O   0  0  0  0  0  0  0  0  0  0  0  0
   25.5603   -0.0440  -13.0982 O   0  0  0  0  0  1  0  0  0  0  0  0
   21.0974    0.3391  -11.4526 C   0  0  0  0  0  0  0  0  0  0  0  0
   20.0548    1.0017  -10.8807 C   0  0  0  0  0  0  0  0  0  0  0  0
  1  2  1  1
  2  3  2  0
  3  4  1  0
  4  5  2  0
  5  6  1  0
  6  7  1  6
  7  8  1  0
  8  9  1  0
  9 10  2  0
 10 11  1  0
 11 12  2  0
 12 13  1  0
 13 14  1  0
 14 15  2  0
 15 16  1  0
 16 17  1  0
 17 18  2  0
 17 19  1  0
  5 20  1  0
 20 21  2  0
 21  2  1  0
 16  8  2  0
 15 11  1  0
M  CHG  2  17   1  19  -1
M  END
$$$$
