_rank11
     RDKit          3D

 23 26  0  0  0  0  0  0  0  0999 V2000
   18.4458    0.1209  -10.5986 Cl  0  0  0  0  0  0  0  0  0  0  0  0
   20.1327   -0.0254  -10.1726 C   0  0  0  0  0  0  0  0  0  0  0  0
   20.5373    0.3452   -8.9240 C   0  0  0  0  0  0  0  0  0  0  0  0
   21.8653    0.2329   -8.5805 C   0  0  0  0  0  0  0  0  0  0  0  0
   22.7768   -0.2610   -9.5225 C   0  0  0  0  0  0  0  0  0  0  0  0
   22.3879   -0.6404  -10.7880 C   0  0  0  0  0  0  0  0  0  0  0  0
   23.4310   -1.1546  -11.7149 C   0  0  2  0  0  0  0  0  0  0  0  0
   24.5555   -1.7225  -10.9425 C   0  0  0  0  0  0  0  0  0  0  0  0
   25.9148   -1.2066  -11.1650 C   0  0  2  0  0  0  0  0  0  0  0  0
   26.6863   -0.9957   -9.9031 C   0  0  0  0  0  0  0  0  0  0  0  0
   27.9200   -1.6030   -9.7256 C   0  0  0  0  0  0  0  0  0  0  0  0
   28.6891   -1.4601   -8.6012 C   0  0  0  0  0  0  0  0  0  0  0  0
   28.1994   -0.6628   -7.5907 C   0  0  0  0  0  0  0  0  0  0  0  0
   26.9578   -0.0350   -7.7372 C   0  0  0  0  0  0  0  0  0  0  0  0
   26.3017    1.0586   -6.3338 Br  0  0  0  0  0  0  0  0  0  0  0  0
   26.2148   -0.2027   -8.8810 C   0  0  0  0  0  0  0  0  0  0  0  0
   25.9984    0.0111  -11.9312 N   0  0  0  0  0  0  0  0  0  0  0  0
   24.9944    0.3857  -12.8461 C   0  0  0  0  0  0  0  0  0  0  0  0
   24.9655    1.2341  -13.8814 N   0  0  0  0  0  0  0  0  0  0  0  0
   23.7655    1.1854  -14.3794 N   0  0  0  0  0  0  0  0  0  0  0  0
   23.0547    0.3274  -13.6754 N   0  0  0  0  0  0  0  0  0  0  0  0
   23.7902   -0.1927  -12.7076 N   0  0  0  0  0  0  0  0  0  0  0  0
   21.0593   -0.5155  -11.0963 C   0  0  0  0  0  0  0  0  0  0  0  0
  1  2  1  0
  2  3  2  0
  3  4  1  0
  4  5  2  0
  5  6  1  0
  7  6  1  1
  8  7  1  6
  8  9  1  0
  9 10  1  1
 10 11  2  0
 11 12  1  0
 12 13  2  0
 13 14  1  0
 14 15  1  0
 14 16  2  0
  9 17  1  0
 17 18  1  0
 18 19  2  0
 19 20  1  0
 20 21  2  0
 21 22  1  0
  6 23  2  0
 23  2  1  0
 22  7  1  0
 16 10  1  0
 22 18  1  0
M  END
$$$$
