_rank18
     RDKit          3D

 37 40  0  0  0  0  0  0  0  0999 V2000
   -7.2615  -13.3392   10.1103 C   0  0  0  0  0  0  0  0  0  0  0  0
   -6.4653  -12.2496    9.5267 N   0  0  0  0  0  0  0  0  0  0  0  0
   -5.2837  -11.9173   10.1322 N   0  0  0  0  0  0  0  0  0  0  0  0
   -4.3826  -11.2141    9.6110 C   0  0  0  0  0  0  0  0  0  0  0  0
   -4.0378  -11.3199    8.2393 N   0  0  0  0  0  0  0  0  0  0  0  0
   -3.0589  -12.7702    7.5750 Br  0  0  0  0  0  0  0  0  0  0  0  0
   -3.6677  -10.3045   10.4285 N   0  0  0  0  0  0  0  0  0  0  0  0
   -4.2647   -9.6327   11.4885 N   0  0  0  0  0  0  0  0  0  0  0  0
   -4.3365   -8.3170   11.6497 C   0  0  0  0  0  0  0  0  0  0  0  0
   -3.7790   -7.5494   10.8215 O   0  0  0  0  0  0  0  0  0  0  0  0
   -4.9989   -7.7770   12.6982 N   0  0  0  0  0  0  0  0  0  0  0  0
   -5.6113   -8.5310   13.6243 C   0  0  0  0  0  0  0  0  0  0  0  0
   -6.3128   -7.9171   14.6965 N   0  0  0  0  0  0  0  0  0  0  0  0
   -7.5963   -7.3549   14.5674 C   0  0  0  0  0  0  0  0  0  0  0  0
   -8.3435   -7.1245   15.6983 C   0  0  0  0  0  0  0  0  0  0  0  0
   -9.6110   -6.5659   15.6228 C   0  0  0  0  0  0  0  0  0  0  0  0
  -10.5632   -6.2246   16.5529 C   0  0  0  0  0  0  0  0  0  0  0  0
  -11.6291   -5.7035   15.9181 N   0  0  0  0  0  0  0  0  0  0  0  0
  -12.8361   -5.2240   16.6004 C   0  0  0  0  0  0  0  0  0  0  0  0
  -11.3681   -5.7124   14.6293 N   0  0  0  0  0  0  0  0  0  0  0  0
  -10.1485   -6.2296   14.4089 C   0  0  0  0  0  0  0  0  0  0  0  0
   -9.3883   -6.4658   13.2759 C   0  0  0  0  0  0  0  0  0  0  0  0
   -8.1321   -7.0194   13.3529 C   0  0  0  0  0  0  0  0  0  0  0  0
   -7.4371   -7.2217   12.1858 F   0  0  0  0  0  0  0  0  0  0  0  0
   -5.5295   -9.8828   13.4496 N   0  0  0  0  0  0  0  0  0  0  0  0
   -6.2247  -10.7091   14.3883 C   0  0  0  0  0  0  0  0  0  0  0  0
   -5.5666  -11.0307   15.6557 C   0  0  0  0  0  0  0  0  0  0  0  0
   -5.5093  -12.3796   16.0772 C   0  0  0  0  0  0  0  0  0  0  0  0
   -4.8936  -12.7471   17.2433 C   0  0  0  0  0  0  0  0  0  0  0  0
   -4.8419  -14.0479   17.6405 F   0  0  0  0  0  0  0  0  0  0  0  0
   -4.2931  -11.8280   18.0763 C   0  0  0  0  0  0  0  0  0  0  0  0
   -3.6942  -12.2151   19.2231 F   0  0  0  0  0  0  0  0  0  0  0  0
   -4.3308  -10.5114   17.6951 C   0  0  0  0  0  0  0  0  0  0  0  0
   -4.9609  -10.1473   16.5040 C   0  0  0  0  0  0  0  0  0  0  0  0
   -4.9348   -8.8335   16.2087 F   0  0  0  0  0  0  0  0  0  0  0  0
   -4.8818  -10.4340   12.4198 C   0  0  0  0  0  0  0  0  0  0  0  0
   -4.8147  -11.6942   12.2571 O   0  0  0  0  0  0  0  0  0  0  0  0
  1  2  1  6
  2  3  1  0
  3  4  2  3
  4  5  1  0
  5  6  1  0
  4  7  1  0
  7  8  1  0
  8  9  1  0
  9 10  2  0
  9 11  1  0
 11 12  2  0
 12 13  1  0
 13 14  1  0
 14 15  2  0
 15 16  1  0
 16 17  2  0
 17 18  1  0
 19 18  1  1
 18 20  1  0
 20 21  2  0
 21 22  1  0
 22 23  2  0
 23 24  1  0
 12 25  1  0
 26 25  1  6
 26 27  1  0
 27 28  2  0
 28 29  1  0
 29 30  1  0
 29 31  2  0
 31 32  1  0
 31 33  1  0
 33 34  2  0
 34 35  1  0
 25 36  1  0
 36 37  2  0
 36  8  1  0
 23 14  1  0
 34 27  1  0
 21 16  1  0
M  END
$$$$
