_rank13
     RDKit          3D

 37 40  0  0  0  0  0  0  0  0999 V2000
   -2.3458   -9.3115   15.2733 C   0  0  0  0  0  0  0  0  0  0  0  0
   -2.6997   -7.9388   14.8829 N   0  0  0  0  0  0  0  0  0  0  0  0
   -3.9694   -7.7033   14.4299 N   0  0  0  0  0  0  0  0  0  0  0  0
   -4.2675   -7.4219   13.2424 C   0  0  0  0  0  0  0  0  0  0  0  0
   -4.6413   -6.1126   12.8455 N   0  0  0  0  0  0  0  0  0  0  0  0
   -4.9433   -4.7498   14.0923 Br  0  0  0  0  0  0  0  0  0  0  0  0
   -4.2570   -8.4546   12.2727 N   0  0  0  0  0  0  0  0  0  0  0  0
   -5.4260   -8.9770   11.7327 N   0  0  0  0  0  0  0  0  0  0  0  0
   -5.5785   -9.4739   10.5112 C   0  0  0  0  0  0  0  0  0  0  0  0
   -4.6196   -9.4463    9.6954 O   0  0  0  0  0  0  0  0  0  0  0  0
   -6.7561  -10.0110   10.1178 N   0  0  0  0  0  0  0  0  0  0  0  0
   -7.8239  -10.0693   10.9288 C   0  0  0  0  0  0  0  0  0  0  0  0
   -9.0333  -10.6623   10.4771 N   0  0  0  0  0  0  0  0  0  0  0  0
   -9.0829  -11.7389    9.5723 C   0  0  0  0  0  0  0  0  0  0  0  0
   -8.0127  -12.5986    9.4949 C   0  0  0  0  0  0  0  0  0  0  0  0
   -8.0176  -13.6780    8.6236 C   0  0  0  0  0  0  0  0  0  0  0  0
   -7.1224  -14.6803    8.3370 C   0  0  0  0  0  0  0  0  0  0  0  0
   -7.6493  -15.4822    7.3935 N   0  0  0  0  0  0  0  0  0  0  0  0
   -6.9701  -16.6626    6.8478 C   0  0  0  0  0  0  0  0  0  0  0  0
   -8.8375  -15.0090    7.0876 N   0  0  0  0  0  0  0  0  0  0  0  0
   -9.0985  -13.9112    7.8155 C   0  0  0  0  0  0  0  0  0  0  0  0
  -10.1710  -13.0394    7.9008 C   0  0  0  0  0  0  0  0  0  0  0  0
  -10.1644  -11.9703    8.7652 C   0  0  0  0  0  0  0  0  0  0  0  0
  -11.2659  -11.1506    8.7954 F   0  0  0  0  0  0  0  0  0  0  0  0
   -7.6562   -9.5536   12.1821 N   0  0  0  0  0  0  0  0  0  0  0  0
   -8.7593   -9.6577   13.0875 C   0  0  0  0  0  0  0  0  0  0  0  0
   -9.4890   -8.4389   13.4405 C   0  0  0  0  0  0  0  0  0  0  0  0
  -10.1605   -8.3759   14.6838 C   0  0  0  0  0  0  0  0  0  0  0  0
  -10.8461   -7.2590   15.0794 C   0  0  0  0  0  0  0  0  0  0  0  0
  -11.4883   -7.2066   16.2783 F   0  0  0  0  0  0  0  0  0  0  0  0
  -10.9241   -6.1300   14.2929 C   0  0  0  0  0  0  0  0  0  0  0  0
  -11.6090   -5.0413   14.7043 F   0  0  0  0  0  0  0  0  0  0  0  0
  -10.2825   -6.1591   13.0813 C   0  0  0  0  0  0  0  0  0  0  0  0
   -9.5861   -7.3029   12.6876 C   0  0  0  0  0  0  0  0  0  0  0  0
   -8.9784   -7.2310   11.4878 F   0  0  0  0  0  0  0  0  0  0  0  0
   -6.5008   -9.0214   12.5889 C   0  0  0  0  0  0  0  0  0  0  0  0
   -6.3471   -8.5490   13.7603 O   0  0  0  0  0  0  0  0  0  0  0  0
  1  2  1  6
  2  3  1  0
  3  4  2  3
  4  5  1  0
  5  6  1  0
  4  7  1  0
  7  8  1  0
  8  9  1  0
  9 10  2  0
  9 11  1  0
 11 12  2  0
 12 13  1  0
 13 14  1  0
 14 15  2  0
 15 16  1  0
 16 17  2  0
 17 18  1  0
 19 18  1  1
 18 20  1  0
 20 21  2  0
 21 22  1  0
 22 23  2  0
 23 24  1  0
 12 25  1  0
 26 25  1  6
 26 27  1  0
 27 28  2  0
 28 29  1  0
 29 30  1  0
 29 31  2  0
 31 32  1  0
 31 33  1  0
 33 34  2  0
 34 35  1  0
 25 36  1  0
 36 37  2  0
 36  8  1  0
 23 14  1  0
 34 27  1  0
 21 16  1  0
M  END
$$$$
