_rank20
     RDKit          3D

 37 40  0  0  0  0  0  0  0  0999 V2000
   -4.0131  -11.8269   15.0852 C   0  0  0  0  0  0  0  0  0  0  0  0
   -3.6027  -10.7368   14.1879 N   0  0  0  0  0  0  0  0  0  0  0  0
   -3.1128  -11.0665   12.9532 N   0  0  0  0  0  0  0  0  0  0  0  0
   -2.9221  -10.2525   12.0156 C   0  0  0  0  0  0  0  0  0  0  0  0
   -1.8462   -9.3285   12.0221 N   0  0  0  0  0  0  0  0  0  0  0  0
   -0.1371   -9.7967   11.4199 Br  0  0  0  0  0  0  0  0  0  0  0  0
   -3.8298  -10.2388   10.9281 N   0  0  0  0  0  0  0  0  0  0  0  0
   -5.1991  -10.0827   11.1066 N   0  0  0  0  0  0  0  0  0  0  0  0
   -5.9329   -9.0462   10.7201 C   0  0  0  0  0  0  0  0  0  0  0  0
   -5.3820   -8.0498   10.1820 O   0  0  0  0  0  0  0  0  0  0  0  0
   -7.2739   -9.0349   10.8976 N   0  0  0  0  0  0  0  0  0  0  0  0
   -7.9298  -10.0568   11.4693 C   0  0  0  0  0  0  0  0  0  0  0  0
   -9.3422  -10.0078   11.6149 N   0  0  0  0  0  0  0  0  0  0  0  0
  -10.1202   -8.8804   11.2930 C   0  0  0  0  0  0  0  0  0  0  0  0
  -11.1197   -9.0014   10.3567 C   0  0  0  0  0  0  0  0  0  0  0  0
  -11.9175   -7.9206   10.0110 C   0  0  0  0  0  0  0  0  0  0  0  0
  -12.9649   -7.7445    9.1391 C   0  0  0  0  0  0  0  0  0  0  0  0
  -13.3813   -6.4668    9.2063 N   0  0  0  0  0  0  0  0  0  0  0  0
  -14.4895   -5.9226    8.4136 C   0  0  0  0  0  0  0  0  0  0  0  0
  -12.6269   -5.8484   10.0882 N   0  0  0  0  0  0  0  0  0  0  0  0
  -11.7239   -6.6999   10.6009 C   0  0  0  0  0  0  0  0  0  0  0  0
  -10.7146   -6.5882   11.5424 C   0  0  0  0  0  0  0  0  0  0  0  0
   -9.9250   -7.6607   11.8838 C   0  0  0  0  0  0  0  0  0  0  0  0
   -8.9453   -7.4736   12.8279 F   0  0  0  0  0  0  0  0  0  0  0  0
   -7.1650  -11.1167   11.8647 N   0  0  0  0  0  0  0  0  0  0  0  0
   -7.8454  -12.2454   12.4216 C   0  0  0  0  0  0  0  0  0  0  0  0
   -8.1107  -13.3962   11.5566 C   0  0  0  0  0  0  0  0  0  0  0  0
   -8.3198  -13.1827   10.1741 C   0  0  0  0  0  0  0  0  0  0  0  0
   -8.5557  -14.2182    9.3103 C   0  0  0  0  0  0  0  0  0  0  0  0
   -8.7544  -14.0037    7.9810 F   0  0  0  0  0  0  0  0  0  0  0  0
   -8.6037  -15.5290    9.7332 C   0  0  0  0  0  0  0  0  0  0  0  0
   -8.8407  -16.5330    8.8618 F   0  0  0  0  0  0  0  0  0  0  0  0
   -8.4040  -15.7693   11.0683 C   0  0  0  0  0  0  0  0  0  0  0  0
   -8.1640  -14.7063   11.9406 C   0  0  0  0  0  0  0  0  0  0  0  0
   -7.9673  -15.0433   13.2296 F   0  0  0  0  0  0  0  0  0  0  0  0
   -5.8404  -11.1465   11.6958 C   0  0  0  0  0  0  0  0  0  0  0  0
   -5.1329  -12.1397   12.0590 O   0  0  0  0  0  0  0  0  0  0  0  0
  1  2  1  6
  2  3  1  0
  3  4  2  3
  4  5  1  0
  5  6  1  0
  4  7  1  0
  7  8  1  0
  8  9  1  0
  9 10  2  0
  9 11  1  0
 11 12  2  0
 12 13  1  0
 13 14  1  0
 14 15  2  0
 15 16  1  0
 16 17  2  0
 17 18  1  0
 19 18  1  1
 18 20  1  0
 20 21  2  0
 21 22  1  0
 22 23  2  0
 23 24  1  0
 12 25  1  0
 26 25  1  6
 26 27  1  0
 27 28  2  0
 28 29  1  0
 29 30  1  0
 29 31  2  0
 31 32  1  0
 31 33  1  0
 33 34  2  0
 34 35  1  0
 25 36  1  0
 36 37  2  0
 36  8  1  0
 23 14  1  0
 34 27  1  0
 21 16  1  0
M  END
$$$$
