_rank9
     RDKit          3D

 37 40  0  0  0  0  0  0  0  0999 V2000
   -1.7050  -14.0311    9.7966 C   0  0  0  0  0  0  0  0  0  0  0  0
   -2.3688  -12.7437   10.0496 N   0  0  0  0  0  0  0  0  0  0  0  0
   -2.2562  -12.1933   11.2976 N   0  0  0  0  0  0  0  0  0  0  0  0
   -2.7793  -11.1081   11.6537 C   0  0  0  0  0  0  0  0  0  0  0  0
   -2.5157  -10.5190   12.9166 N   0  0  0  0  0  0  0  0  0  0  0  0
   -2.1288   -8.6967   13.0961 Br  0  0  0  0  0  0  0  0  0  0  0  0
   -3.6853  -10.4659   10.7742 N   0  0  0  0  0  0  0  0  0  0  0  0
   -4.7822   -9.7473   11.2342 N   0  0  0  0  0  0  0  0  0  0  0  0
   -5.3236   -8.6793   10.6609 C   0  0  0  0  0  0  0  0  0  0  0  0
   -4.8026   -8.1881    9.6249 O   0  0  0  0  0  0  0  0  0  0  0  0
   -6.4322   -8.0980   11.1735 N   0  0  0  0  0  0  0  0  0  0  0  0
   -7.0387   -8.5607   12.2778 C   0  0  0  0  0  0  0  0  0  0  0  0
   -8.2137   -7.9287   12.7663 N   0  0  0  0  0  0  0  0  0  0  0  0
   -9.4860   -8.0966   12.1893 C   0  0  0  0  0  0  0  0  0  0  0  0
   -9.7631   -7.4858   10.9891 C   0  0  0  0  0  0  0  0  0  0  0  0
  -11.0002   -7.6272   10.3777 C   0  0  0  0  0  0  0  0  0  0  0  0
  -11.5504   -7.1544    9.2106 C   0  0  0  0  0  0  0  0  0  0  0  0
  -12.8107   -7.6133    9.1025 N   0  0  0  0  0  0  0  0  0  0  0  0
  -13.6995   -7.3114    7.9750 C   0  0  0  0  0  0  0  0  0  0  0  0
  -13.0574   -8.3516   10.1624 N   0  0  0  0  0  0  0  0  0  0  0  0
  -11.9795   -8.3851   10.9626 C   0  0  0  0  0  0  0  0  0  0  0  0
  -11.6907   -8.9959   12.1714 C   0  0  0  0  0  0  0  0  0  0  0  0
  -10.4639   -8.8547   12.7757 C   0  0  0  0  0  0  0  0  0  0  0  0
  -10.2505   -9.4928   13.9729 F   0  0  0  0  0  0  0  0  0  0  0  0
   -6.4723   -9.6582   12.8602 N   0  0  0  0  0  0  0  0  0  0  0  0
   -7.1331  -10.2090   14.0036 C   0  0  0  0  0  0  0  0  0  0  0  0
   -6.3837  -10.3192   15.2562 C   0  0  0  0  0  0  0  0  0  0  0  0
   -5.1774   -9.5951   15.4011 C   0  0  0  0  0  0  0  0  0  0  0  0
   -4.4395   -9.6428   16.5532 C   0  0  0  0  0  0  0  0  0  0  0  0
   -3.2804   -8.9414   16.6845 F   0  0  0  0  0  0  0  0  0  0  0  0
   -4.8255  -10.3971   17.6400 C   0  0  0  0  0  0  0  0  0  0  0  0
   -4.0788  -10.4298   18.7648 F   0  0  0  0  0  0  0  0  0  0  0  0
   -5.9915  -11.1104   17.5314 C   0  0  0  0  0  0  0  0  0  0  0  0
   -6.7365  -11.0547   16.3522 C   0  0  0  0  0  0  0  0  0  0  0  0
   -7.8722  -11.7785   16.3458 F   0  0  0  0  0  0  0  0  0  0  0  0
   -5.3793  -10.2467   12.3674 C   0  0  0  0  0  0  0  0  0  0  0  0
   -4.8595  -11.2739   12.9093 O   0  0  0  0  0  0  0  0  0  0  0  0
  1  2  1  6
  2  3  1  0
  3  4  2  3
  4  5  1  0
  5  6  1  0
  4  7  1  0
  7  8  1  0
  8  9  1  0
  9 10  2  0
  9 11  1  0
 11 12  2  0
 12 13  1  0
 13 14  1  0
 14 15  2  0
 15 16  1  0
 16 17  2  0
 17 18  1  0
 19 18  1  1
 18 20  1  0
 20 21  2  0
 21 22  1  0
 22 23  2  0
 23 24  1  0
 12 25  1  0
 26 25  1  6
 26 27  1  0
 27 28  2  0
 28 29  1  0
 29 30  1  0
 29 31  2  0
 31 32  1  0
 31 33  1  0
 33 34  2  0
 34 35  1  0
 25 36  1  0
 36 37  2  0
 36  8  1  0
 23 14  1  0
 34 27  1  0
 21 16  1  0
M  END
$$$$
