_rank14
     RDKit          3D

 37 40  0  0  0  0  0  0  0  0999 V2000
   -1.4725  -13.6395    7.3637 C   0  0  0  0  0  0  0  0  0  0  0  0
   -2.2493  -12.7345    8.2235 N   0  0  0  0  0  0  0  0  0  0  0  0
   -2.8289  -13.2529    9.3497 N   0  0  0  0  0  0  0  0  0  0  0  0
   -3.5028  -12.5928   10.1793 C   0  0  0  0  0  0  0  0  0  0  0  0
   -3.8298  -13.0992   11.4632 N   0  0  0  0  0  0  0  0  0  0  0  0
   -4.8166  -14.6743   11.6828 Br  0  0  0  0  0  0  0  0  0  0  0  0
   -3.9759  -11.3101    9.8084 N   0  0  0  0  0  0  0  0  0  0  0  0
   -4.7317  -10.5213   10.6672 N   0  0  0  0  0  0  0  0  0  0  0  0
   -5.6686   -9.6478   10.3185 C   0  0  0  0  0  0  0  0  0  0  0  0
   -5.9027   -9.4275    9.1009 O   0  0  0  0  0  0  0  0  0  0  0  0
   -6.3820   -8.9785   11.2527 N   0  0  0  0  0  0  0  0  0  0  0  0
   -6.1842   -9.1556   12.5684 C   0  0  0  0  0  0  0  0  0  0  0  0
   -6.9734   -8.4449   13.5121 N   0  0  0  0  0  0  0  0  0  0  0  0
   -8.1638   -7.7709   13.1822 C   0  0  0  0  0  0  0  0  0  0  0  0
   -8.8195   -8.0998   12.0194 C   0  0  0  0  0  0  0  0  0  0  0  0
   -9.9997   -7.4684   11.6548 C   0  0  0  0  0  0  0  0  0  0  0  0
  -10.8566   -7.5846   10.5869 C   0  0  0  0  0  0  0  0  0  0  0  0
  -11.8711   -6.7145   10.7421 N   0  0  0  0  0  0  0  0  0  0  0  0
  -12.9785   -6.5677    9.7909 C   0  0  0  0  0  0  0  0  0  0  0  0
  -11.6695   -6.0651   11.8677 N   0  0  0  0  0  0  0  0  0  0  0  0
  -10.5404   -6.4960   12.4532 C   0  0  0  0  0  0  0  0  0  0  0  0
   -9.8723   -6.1718   13.6220 C   0  0  0  0  0  0  0  0  0  0  0  0
   -8.7028   -6.7989   13.9818 C   0  0  0  0  0  0  0  0  0  0  0  0
   -8.0987   -6.4254   15.1571 F   0  0  0  0  0  0  0  0  0  0  0  0
   -5.2170  -10.0547   12.9156 N   0  0  0  0  0  0  0  0  0  0  0  0
   -5.0270  -10.3081   14.3110 C   0  0  0  0  0  0  0  0  0  0  0  0
   -5.8851  -11.2987   14.9630 C   0  0  0  0  0  0  0  0  0  0  0  0
   -7.0668  -11.7201   14.3099 C   0  0  0  0  0  0  0  0  0  0  0  0
   -7.9022  -12.6553   14.8591 C   0  0  0  0  0  0  0  0  0  0  0  0
   -9.0367  -13.0561   14.2228 F   0  0  0  0  0  0  0  0  0  0  0  0
   -7.6439  -13.2425   16.0788 C   0  0  0  0  0  0  0  0  0  0  0  0
   -8.4850  -14.1610   16.6009 F   0  0  0  0  0  0  0  0  0  0  0  0
   -6.5050  -12.8557   16.7372 C   0  0  0  0  0  0  0  0  0  0  0  0
   -5.6599  -11.9014   16.1683 C   0  0  0  0  0  0  0  0  0  0  0  0
   -4.5603  -11.5963   16.8836 F   0  0  0  0  0  0  0  0  0  0  0  0
   -4.5041  -10.7263   12.0075 C   0  0  0  0  0  0  0  0  0  0  0  0
   -3.6091  -11.5689   12.3360 O   0  0  0  0  0  0  0  0  0  0  0  0
  1  2  1  6
  2  3  1  0
  3  4  2  3
  4  5  1  0
  5  6  1  0
  4  7  1  0
  7  8  1  0
  8  9  1  0
  9 10  2  0
  9 11  1  0
 11 12  2  0
 12 13  1  0
 13 14  1  0
 14 15  2  0
 15 16  1  0
 16 17  2  0
 17 18  1  0
 19 18  1  1
 18 20  1  0
 20 21  2  0
 21 22  1  0
 22 23  2  0
 23 24  1  0
 12 25  1  0
 26 25  1  6
 26 27  1  0
 27 28  2  0
 28 29  1  0
 29 30  1  0
 29 31  2  0
 31 32  1  0
 31 33  1  0
 33 34  2  0
 34 35  1  0
 25 36  1  0
 36 37  2  0
 36  8  1  0
 23 14  1  0
 34 27  1  0
 21 16  1  0
M  END
$$$$
