_rank16
     RDKit          3D

 37 40  0  0  0  0  0  0  0  0999 V2000
   -3.3209   -7.5227   16.0749 C   0  0  0  0  0  0  0  0  0  0  0  0
   -4.5470   -7.3018   15.2940 N   0  0  0  0  0  0  0  0  0  0  0  0
   -4.5678   -7.7222   13.9918 N   0  0  0  0  0  0  0  0  0  0  0  0
   -5.1946   -7.1533   13.0635 C   0  0  0  0  0  0  0  0  0  0  0  0
   -5.9368   -5.9625   13.2697 N   0  0  0  0  0  0  0  0  0  0  0  0
   -5.1036   -4.3344   13.6671 Br  0  0  0  0  0  0  0  0  0  0  0  0
   -5.1821   -7.7376   11.7730 N   0  0  0  0  0  0  0  0  0  0  0  0
   -5.5355   -9.0638   11.5557 N   0  0  0  0  0  0  0  0  0  0  0  0
   -4.7585  -10.0163   11.0543 C   0  0  0  0  0  0  0  0  0  0  0  0
   -3.5927   -9.7395   10.6668 O   0  0  0  0  0  0  0  0  0  0  0  0
   -5.1983  -11.2908   10.9449 N   0  0  0  0  0  0  0  0  0  0  0  0
   -6.4300  -11.6596   11.3301 C   0  0  0  0  0  0  0  0  0  0  0  0
   -6.8392  -13.0153   11.2151 N   0  0  0  0  0  0  0  0  0  0  0  0
   -6.8876  -13.7138    9.9945 C   0  0  0  0  0  0  0  0  0  0  0  0
   -5.9651  -13.4208    9.0180 C   0  0  0  0  0  0  0  0  0  0  0  0
   -5.9680  -14.0869    7.8013 C   0  0  0  0  0  0  0  0  0  0  0  0
   -5.1919  -14.0157    6.6696 C   0  0  0  0  0  0  0  0  0  0  0  0
   -5.6417  -14.9120    5.7723 N   0  0  0  0  0  0  0  0  0  0  0  0
   -5.0457  -15.1158    4.4473 C   0  0  0  0  0  0  0  0  0  0  0  0
   -6.6686  -15.5326    6.3105 N   0  0  0  0  0  0  0  0  0  0  0  0
   -6.8984  -15.0589    7.5458 C   0  0  0  0  0  0  0  0  0  0  0  0
   -7.8233  -15.3464    8.5355 C   0  0  0  0  0  0  0  0  0  0  0  0
   -7.8187  -14.6852    9.7410 C   0  0  0  0  0  0  0  0  0  0  0  0
   -8.7660  -15.0268   10.6747 F   0  0  0  0  0  0  0  0  0  0  0  0
   -7.2210  -10.6716   11.8426 N   0  0  0  0  0  0  0  0  0  0  0  0
   -8.5171  -11.0486   12.3175 C   0  0  0  0  0  0  0  0  0  0  0  0
   -8.6075  -11.8263   13.5543 C   0  0  0  0  0  0  0  0  0  0  0  0
   -7.5396  -11.7712   14.4801 C   0  0  0  0  0  0  0  0  0  0  0  0
   -7.5709  -12.4617   15.6618 C   0  0  0  0  0  0  0  0  0  0  0  0
   -6.5392  -12.4017   16.5476 F   0  0  0  0  0  0  0  0  0  0  0  0
   -8.6420  -13.2507   16.0215 C   0  0  0  0  0  0  0  0  0  0  0  0
   -8.6481  -13.9243   17.1919 F   0  0  0  0  0  0  0  0  0  0  0  0
   -9.6942  -13.3244   15.1453 C   0  0  0  0  0  0  0  0  0  0  0  0
   -9.6523  -12.6163   13.9431 C   0  0  0  0  0  0  0  0  0  0  0  0
  -10.7372  -12.7414   13.1549 F   0  0  0  0  0  0  0  0  0  0  0  0
   -6.8035   -9.4084   11.9602 C   0  0  0  0  0  0  0  0  0  0  0  0
   -7.5417   -8.4927   12.4455 O   0  0  0  0  0  0  0  0  0  0  0  0
  1  2  1  6
  2  3  1  0
  3  4  2  3
  4  5  1  0
  5  6  1  0
  4  7  1  0
  7  8  1  0
  8  9  1  0
  9 10  2  0
  9 11  1  0
 11 12  2  0
 12 13  1  0
 13 14  1  0
 14 15  2  0
 15 16  1  0
 16 17  2  0
 17 18  1  0
 19 18  1  1
 18 20  1  0
 20 21  2  0
 21 22  1  0
 22 23  2  0
 23 24  1  0
 12 25  1  0
 26 25  1  6
 26 27  1  0
 27 28  2  0
 28 29  1  0
 29 30  1  0
 29 31  2  0
 31 32  1  0
 31 33  1  0
 33 34  2  0
 34 35  1  0
 25 36  1  0
 36 37  2  0
 36  8  1  0
 23 14  1  0
 34 27  1  0
 21 16  1  0
M  END
$$$$
