_rank9
     RDKit          3D

 37 40  0  0  0  0  0  0  0  0999 V2000
   -4.8992   -7.5870   12.9360 C   0  0  0  0  0  0  0  0  0  0  0  0
   -4.5104   -8.8401   12.2989 N   0  0  0  0  0  0  0  0  0  0  0  0
   -3.6944   -8.8438   11.1553 N   0  0  0  0  0  0  0  0  0  0  0  0
   -3.8565   -9.6424   10.1389 C   0  0  0  0  0  0  0  0  0  0  0  0
   -3.1247   -9.4639    8.9188 N   0  0  0  0  0  0  0  0  0  0  0  0
   -1.9081   -8.0268    8.6847 Br  0  0  0  0  0  0  0  0  0  0  0  0
   -4.7953  -10.7238   10.2315 N   0  0  0  0  0  0  0  0  0  0  0  0
   -5.6770  -10.8663   11.3237 N   0  0  0  0  0  0  0  0  0  0  0  0
   -5.2969  -11.5485   12.4392 C   0  0  0  0  0  0  0  0  0  0  0  0
   -4.1536  -12.0727   12.5160 O   0  0  0  0  0  0  0  0  0  0  0  0
   -6.1535  -11.6777   13.4741 N   0  0  0  0  0  0  0  0  0  0  0  0
   -7.4103  -11.1734   13.4144 C   0  0  0  0  0  0  0  0  0  0  0  0
   -8.2444  -11.2741   14.5815 N   0  0  0  0  0  0  0  0  0  0  0  0
   -7.8597  -12.0134   15.7542 C   0  0  0  0  0  0  0  0  0  0  0  0
   -6.8504  -11.5242   16.6189 C   0  0  0  0  0  0  0  0  0  0  0  0
   -6.5033  -12.3014   17.7181 C   0  0  0  0  0  0  0  0  0  0  0  0
   -5.5857  -12.1153   18.7240 C   0  0  0  0  0  0  0  0  0  0  0  0
   -5.6621  -13.1974   19.5341 N   0  0  0  0  0  0  0  0  0  0  0  0
   -4.9097  -13.3865   20.7650 C   0  0  0  0  0  0  0  0  0  0  0  0
   -6.5897  -14.0448   19.1014 N   0  0  0  0  0  0  0  0  0  0  0  0
   -7.1024  -13.5008   17.9822 C   0  0  0  0  0  0  0  0  0  0  0  0
   -8.0917  -14.0213   17.1568 C   0  0  0  0  0  0  0  0  0  0  0  0
   -8.4661  -13.2714   16.0252 C   0  0  0  0  0  0  0  0  0  0  0  0
   -9.4304  -13.7572   15.2029 F   0  0  0  0  0  0  0  0  0  0  0  0
   -7.8358  -10.5358   12.2733 N   0  0  0  0  0  0  0  0  0  0  0  0
   -9.2376  -10.0906   12.1024 C   0  0  0  0  0  0  0  0  0  0  0  0
   -9.4495   -8.7357   12.7349 C   0  0  0  0  0  0  0  0  0  0  0  0
   -8.4610   -8.1825   13.5680 C   0  0  0  0  0  0  0  0  0  0  0  0
   -8.6370   -6.9150   14.1318 C   0  0  0  0  0  0  0  0  0  0  0  0
   -7.6741   -6.3894   14.9295 F   0  0  0  0  0  0  0  0  0  0  0  0
   -9.8022   -6.1892   13.8711 C   0  0  0  0  0  0  0  0  0  0  0  0
   -9.9735   -4.9577   14.4127 F   0  0  0  0  0  0  0  0  0  0  0  0
  -10.7935   -6.7326   13.0508 C   0  0  0  0  0  0  0  0  0  0  0  0
  -10.6227   -7.9998   12.4842 C   0  0  0  0  0  0  0  0  0  0  0  0
  -11.6086   -8.5115   11.7076 F   0  0  0  0  0  0  0  0  0  0  0  0
   -6.9480  -10.3754   11.2361 C   0  0  0  0  0  0  0  0  0  0  0  0
   -7.3001   -9.7616   10.1899 O   0  0  0  0  0  0  0  0  0  0  0  0
  1  2  1  6
  2  3  1  0
  3  4  2  3
  4  5  1  0
  5  6  1  0
  4  7  1  0
  7  8  1  0
  8  9  1  0
  9 10  2  0
  9 11  1  0
 11 12  2  0
 12 13  1  0
 13 14  1  0
 14 15  2  0
 15 16  1  0
 16 17  2  0
 17 18  1  0
 19 18  1  1
 18 20  1  0
 20 21  2  0
 21 22  1  0
 22 23  2  0
 23 24  1  0
 12 25  1  0
 26 25  1  6
 26 27  1  0
 27 28  2  0
 28 29  1  0
 29 30  1  0
 29 31  2  0
 31 32  1  0
 31 33  1  0
 33 34  2  0
 34 35  1  0
 25 36  1  0
 36 37  2  0
 36  8  1  0
 23 14  1  0
 34 27  1  0
 21 16  1  0
M  END
$$$$
