_rank10
     RDKit          3D

 21 23  0  0  0  0  0  0  0  0999 V2000
   28.4914   -0.1094   -5.4463 N   0  0  0  0  0  0  0  0  0  0  0  0
   27.9446   -0.0619   -6.4663 C   0  0  0  0  0  0  0  0  0  0  0  0
   27.2504   -0.0237   -7.7409 C   0  0  0  0  0  0  0  0  0  0  0  0
   27.6897   -0.7602   -8.8213 C   0  0  0  0  0  0  0  0  0  0  0  0
   27.0523   -0.7363  -10.0224 C   0  0  0  0  0  0  0  0  0  0  0  0
   25.9277    0.0464  -10.1782 C   0  0  0  0  0  0  0  0  0  0  0  0
   25.2206    0.1128  -11.4042 N   0  0  0  0  0  0  0  0  0  0  0  0
   25.6621   -0.4385  -12.6524 C   0  0  0  0  0  0  0  0  0  0  0  0
   24.7087    0.0045  -13.7118 C   0  0  2  0  0  0  0  0  0  0  0  0
   25.3800    0.5499  -14.8159 O   0  0  0  0  0  0  0  0  0  0  0  0
   23.8671    1.0941  -13.0967 C   0  0  0  0  0  0  0  0  0  0  0  0
   23.9538    0.7362  -11.6061 C   0  0  1  0  0  0  0  0  0  0  0  0
   22.8068   -0.0801  -11.2122 C   0  0  0  0  0  0  0  0  0  0  0  0
   22.9385   -1.4451  -11.1437 C   0  0  0  0  0  0  0  0  0  0  0  0
   21.9067   -2.2851  -10.7811 C   0  0  0  0  0  0  0  0  0  0  0  0
   20.6829   -1.7482  -10.4707 C   0  0  0  0  0  0  0  0  0  0  0  0
   20.5110   -0.3847  -10.5275 C   0  0  0  0  0  0  0  0  0  0  0  0
   19.2838    0.1261  -10.2145 F   0  0  0  0  0  0  0  0  0  0  0  0
   21.5631    0.4262  -10.8936 C   0  0  0  0  0  0  0  0  0  0  0  0
   25.5143    0.7610   -9.1041 N   0  0  0  0  0  0  0  0  0  0  0  0
   26.1308    0.7493   -7.9124 C   0  0  0  0  0  0  0  0  0  0  0  0
  1  2  3  0
  2  3  1  0
  3  4  2  0
  4  5  1  0
  5  6  2  0
  6  7  1  0
  8  7  1  1
  8  9  1  0
  9 10  1  6
  9 11  1  0
 11 12  1  6
 12 13  1  6
 13 14  2  0
 14 15  1  0
 15 16  2  0
 16 17  1  0
 17 18  1  0
 17 19  2  0
  6 20  1  0
 20 21  2  0
 21  3  1  0
 12  7  1  0
 19 13  1  0
M  END
$$$$
