_rank14
     RDKit          3D

 21 23  0  0  0  0  0  0  0  0999 V2000
   29.0555   -0.6744   -6.1614 N   0  0  0  0  0  0  0  0  0  0  0  0
   28.3666   -0.5979   -7.0895 C   0  0  0  0  0  0  0  0  0  0  0  0
   27.4975   -0.4801   -8.2465 C   0  0  0  0  0  0  0  0  0  0  0  0
   27.8738   -0.9670   -9.4810 C   0  0  0  0  0  0  0  0  0  0  0  0
   27.0729   -0.8652  -10.5754 C   0  0  0  0  0  0  0  0  0  0  0  0
   25.8407   -0.2569  -10.4601 C   0  0  0  0  0  0  0  0  0  0  0  0
   24.9621   -0.1208  -11.5632 N   0  0  0  0  0  0  0  0  0  0  0  0
   25.1518   -0.7083  -12.8577 C   0  0  0  0  0  0  0  0  0  0  0  0
   24.0920   -0.1745  -13.7629 C   0  0  2  0  0  0  0  0  0  0  0  0
   24.6328    0.3077  -14.9639 O   0  0  0  0  0  0  0  0  0  0  0  0
   23.4614    0.9882  -13.0388 C   0  0  0  0  0  0  0  0  0  0  0  0
   23.7434    0.6201  -11.5752 C   0  0  1  0  0  0  0  0  0  0  0  0
   22.5996   -0.0851  -10.9994 C   0  0  0  0  0  0  0  0  0  0  0  0
   22.7872   -1.3091  -10.4061 C   0  0  0  0  0  0  0  0  0  0  0  0
   21.7623   -2.0380   -9.8404 C   0  0  0  0  0  0  0  0  0  0  0  0
   20.4877   -1.5309   -9.8625 C   0  0  0  0  0  0  0  0  0  0  0  0
   20.2590   -0.3074  -10.4478 C   0  0  0  0  0  0  0  0  0  0  0  0
   18.9819    0.1762  -10.4578 F   0  0  0  0  0  0  0  0  0  0  0  0
   21.3057    0.3949  -11.0040 C   0  0  0  0  0  0  0  0  0  0  0  0
   25.4919    0.2138   -9.2386 N   0  0  0  0  0  0  0  0  0  0  0  0
   26.2694    0.1219   -8.1488 C   0  0  0  0  0  0  0  0  0  0  0  0
  1  2  3  0
  2  3  1  0
  3  4  2  0
  4  5  1  0
  5  6  2  0
  6  7  1  0
  8  7  1  1
  8  9  1  0
  9 10  1  6
  9 11  1  0
 11 12  1  6
 12 13  1  6
 13 14  2  0
 14 15  1  0
 15 16  2  0
 16 17  1  0
 17 18  1  0
 17 19  2  0
  6 20  1  0
 20 21  2  0
 21  3  1  0
 12  7  1  0
 19 13  1  0
M  END
$$$$
