_rank15
     RDKit          3D

 21 23  0  0  0  0  0  0  0  0999 V2000
   29.0918   -0.5064   -6.2323 N   0  0  0  0  0  0  0  0  0  0  0  0
   28.3833   -0.4165   -7.1444 C   0  0  0  0  0  0  0  0  0  0  0  0
   27.4956   -0.3271   -8.2897 C   0  0  0  0  0  0  0  0  0  0  0  0
   26.1510   -0.0594   -8.1380 C   0  0  0  0  0  0  0  0  0  0  0  0
   25.3048    0.0276   -9.1992 C   0  0  0  0  0  0  0  0  0  0  0  0
   25.7954   -0.1559  -10.4749 C   0  0  0  0  0  0  0  0  0  0  0  0
   24.9642   -0.0776  -11.6196 N   0  0  0  0  0  0  0  0  0  0  0  0
   25.2407   -0.6757  -12.8934 C   0  0  0  0  0  0  0  0  0  0  0  0
   24.2015   -0.2054  -13.8558 C   0  0  2  0  0  0  0  0  0  0  0  0
   24.7757    0.2825  -15.0388 O   0  0  0  0  0  0  0  0  0  0  0  0
   23.4858    0.9383  -13.1822 C   0  0  0  0  0  0  0  0  0  0  0  0
   23.7152    0.6062  -11.7008 C   0  0  1  0  0  0  0  0  0  0  0  0
   22.5787   -0.1417  -11.1660 C   0  0  0  0  0  0  0  0  0  0  0  0
   22.6197   -1.5140  -11.1468 C   0  0  0  0  0  0  0  0  0  0  0  0
   21.5908   -2.2925  -10.6599 C   0  0  0  0  0  0  0  0  0  0  0  0
   20.4646   -1.6833  -10.1673 C   0  0  0  0  0  0  0  0  0  0  0  0
   20.3854   -0.3101  -10.1693 C   0  0  0  0  0  0  0  0  0  0  0  0
   19.2544    0.2733   -9.6741 F   0  0  0  0  0  0  0  0  0  0  0  0
   21.4317    0.4381  -10.6632 C   0  0  0  0  0  0  0  0  0  0  0  0
   27.1186   -0.4177  -10.6001 N   0  0  0  0  0  0  0  0  0  0  0  0
   27.9674   -0.5071   -9.5646 C   0  0  0  0  0  0  0  0  0  0  0  0
  1  2  3  0
  2  3  1  0
  3  4  2  0
  4  5  1  0
  5  6  2  0
  6  7  1  0
  8  7  1  1
  8  9  1  0
  9 10  1  6
  9 11  1  0
 11 12  1  6
 12 13  1  6
 13 14  2  0
 14 15  1  0
 15 16  2  0
 16 17  1  0
 17 18  1  0
 17 19  2  0
  6 20  1  0
 20 21  2  0
 21  3  1  0
 12  7  1  0
 19 13  1  0
M  END
$$$$
