_rank8
     RDKit          3D

 21 23  0  0  0  0  0  0  0  0999 V2000
   18.2523   -0.9115   -9.3937 N   0  0  0  0  0  0  0  0  0  0  0  0
   19.3463   -0.7844   -9.7527 C   0  0  0  0  0  0  0  0  0  0  0  0
   20.7111   -0.6327  -10.2239 C   0  0  0  0  0  0  0  0  0  0  0  0
   21.5520    0.3246   -9.6956 C   0  0  0  0  0  0  0  0  0  0  0  0
   22.8330    0.4811  -10.1249 C   0  0  0  0  0  0  0  0  0  0  0  0
   23.3195   -0.3388  -11.1213 C   0  0  0  0  0  0  0  0  0  0  0  0
   24.6442   -0.2246  -11.6103 N   0  0  0  0  0  0  0  0  0  0  0  0
   25.1014    0.7471  -12.5609 C   0  0  0  0  0  0  0  0  0  0  0  0
   26.5077    0.4051  -12.9256 C   0  0  2  0  0  0  0  0  0  0  0  0
   26.6879    0.3737  -14.3162 O   0  0  0  0  0  0  0  0  0  0  0  0
   26.7580   -0.9839  -12.3945 C   0  0  0  0  0  0  0  0  0  0  0  0
   25.7457   -1.0526  -11.2421 C   0  0  1  0  0  0  0  0  0  0  0  0
   26.3863   -0.6839   -9.9808 C   0  0  0  0  0  0  0  0  0  0  0  0
   25.7666    0.2095   -9.1423 C   0  0  0  0  0  0  0  0  0  0  0  0
   26.3033    0.6089   -7.9364 C   0  0  0  0  0  0  0  0  0  0  0  0
   27.5137    0.0991   -7.5397 C   0  0  0  0  0  0  0  0  0  0  0  0
   28.1658   -0.7988   -8.3523 C   0  0  0  0  0  0  0  0  0  0  0  0
   29.3693   -1.2921   -7.9361 F   0  0  0  0  0  0  0  0  0  0  0  0
   27.6016   -1.1768   -9.5511 C   0  0  0  0  0  0  0  0  0  0  0  0
   22.4763   -1.2716  -11.6254 N   0  0  0  0  0  0  0  0  0  0  0  0
   21.2102   -1.4397  -11.2138 C   0  0  0  0  0  0  0  0  0  0  0  0
  1  2  3  0
  2  3  1  0
  3  4  2  0
  4  5  1  0
  5  6  2  0
  6  7  1  0
  8  7  1  1
  8  9  1  0
  9 10  1  6
  9 11  1  0
 11 12  1  6
 12 13  1  1
 13 14  2  0
 14 15  1  0
 15 16  2  0
 16 17  1  0
 17 18  1  0
 17 19  2  0
  6 20  1  0
 20 21  2  0
 21  3  1  0
 12  7  1  0
 19 13  1  0
M  END
$$$$
