_rank9
     RDKit          3D

 21 23  0  0  0  0  0  0  0  0999 V2000
   18.4246   -1.0617   -8.7963 N   0  0  0  0  0  0  0  0  0  0  0  0
   19.4637   -0.8538   -9.2641 C   0  0  0  0  0  0  0  0  0  0  0  0
   20.7750   -0.5904   -9.8289 C   0  0  0  0  0  0  0  0  0  0  0  0
   20.9999    0.4959  -10.6486 C   0  0  0  0  0  0  0  0  0  0  0  0
   22.2212    0.7578  -11.1866 C   0  0  0  0  0  0  0  0  0  0  0  0
   23.2785   -0.0835  -10.9109 C   0  0  0  0  0  0  0  0  0  0  0  0
   24.5737    0.1365  -11.4413 N   0  0  0  0  0  0  0  0  0  0  0  0
   24.9954    1.3078  -12.1533 C   0  0  0  0  0  0  0  0  0  0  0  0
   26.3687    1.0544  -12.6799 C   0  0  2  0  0  0  0  0  0  0  0  0
   26.4640    1.3634  -14.0447 O   0  0  0  0  0  0  0  0  0  0  0  0
   26.6179   -0.4243  -12.5211 C   0  0  0  0  0  0  0  0  0  0  0  0
   25.6757   -0.7652  -11.3578 C   0  0  1  0  0  0  0  0  0  0  0  0
   26.3995   -0.7221  -10.0885 C   0  0  0  0  0  0  0  0  0  0  0  0
   27.6664   -1.2461  -10.0132 C   0  0  0  0  0  0  0  0  0  0  0  0
   28.4154   -1.2450   -8.8553 C   0  0  0  0  0  0  0  0  0  0  0  0
   27.8848   -0.6981   -7.7144 C   0  0  0  0  0  0  0  0  0  0  0  0
   26.6182   -0.1629   -7.7493 C   0  0  0  0  0  0  0  0  0  0  0  0
   26.1115    0.3754   -6.6011 F   0  0  0  0  0  0  0  0  0  0  0  0
   25.8968   -0.1803   -8.9231 C   0  0  0  0  0  0  0  0  0  0  0  0
   23.0347   -1.1438  -10.1038 N   0  0  0  0  0  0  0  0  0  0  0  0
   21.8367   -1.4171   -9.5647 C   0  0  0  0  0  0  0  0  0  0  0  0
  1  2  3  0
  2  3  1  0
  3  4  2  0
  4  5  1  0
  5  6  2  0
  6  7  1  0
  8  7  1  1
  8  9  1  0
  9 10  1  6
  9 11  1  0
 11 12  1  6
 12 13  1  1
 13 14  2  0
 14 15  1  0
 15 16  2  0
 16 17  1  0
 17 18  1  0
 17 19  2  0
  6 20  1  0
 20 21  2  0
 21  3  1  0
 12  7  1  0
 19 13  1  0
M  END
$$$$
