_rank16
     RDKit          3D

 21 23  0  0  0  0  0  0  0  0999 V2000
   17.3097   -6.2221  -11.7297 N   0  0  0  0  0  0  0  0  0  0  0  0
   18.1418   -5.4193  -11.6596 C   0  0  0  0  0  0  0  0  0  0  0  0
   19.1728   -4.3997  -11.5870 C   0  0  0  0  0  0  0  0  0  0  0  0
   20.0051   -4.1412  -12.6562 C   0  0  0  0  0  0  0  0  0  0  0  0
   20.9762   -3.1904  -12.6059 C   0  0  0  0  0  0  0  0  0  0  0  0
   21.1446   -2.4530  -11.4528 C   0  0  0  0  0  0  0  0  0  0  0  0
   22.1380   -1.4493  -11.3395 N   0  0  0  0  0  0  0  0  0  0  0  0
   22.9636   -0.9685  -12.4091 C   0  0  0  0  0  0  0  0  0  0  0  0
   23.9816   -0.0475  -11.8237 C   0  0  2  0  0  0  0  0  0  0  0  0
   25.2775   -0.3697  -12.2528 O   0  0  0  0  0  0  0  0  0  0  0  0
   23.9252   -0.2466  -10.3301 C   0  0  0  0  0  0  0  0  0  0  0  0
   22.4854   -0.7475  -10.1473 C   0  0  1  0  0  0  0  0  0  0  0  0
   21.5978    0.3667   -9.8192 C   0  0  0  0  0  0  0  0  0  0  0  0
   22.1220    1.6256   -9.6586 C   0  0  0  0  0  0  0  0  0  0  0  0
   21.3541    2.7284   -9.3490 C   0  0  0  0  0  0  0  0  0  0  0  0
   19.9995    2.5788   -9.1903 C   0  0  0  0  0  0  0  0  0  0  0  0
   19.4364    1.3332   -9.3433 C   0  0  0  0  0  0  0  0  0  0  0  0
   18.0863    1.2093   -9.1801 F   0  0  0  0  0  0  0  0  0  0  0  0
   20.2326    0.2522   -9.6527 C   0  0  0  0  0  0  0  0  0  0  0  0
   20.3163   -2.7238  -10.4156 N   0  0  0  0  0  0  0  0  0  0  0  0
   19.3534   -3.6578  -10.4480 C   0  0  0  0  0  0  0  0  0  0  0  0
  1  2  3  0
  2  3  1  0
  3  4  2  0
  4  5  1  0
  5  6  2  0
  6  7  1  0
  8  7  1  1
  8  9  1  0
  9 10  1  6
  9 11  1  0
 11 12  1  6
 12 13  1  6
 13 14  2  0
 14 15  1  0
 15 16  2  0
 16 17  1  0
 17 18  1  0
 17 19  2  0
  6 20  1  0
 20 21  2  0
 21  3  1  0
 12  7  1  0
 19 13  1  0
M  END
$$$$
