_rank7
     RDKit          3D

 21 23  0  0  0  0  0  0  0  0999 V2000
   18.0703    0.1326   -9.0993 N   0  0  0  0  0  0  0  0  0  0  0  0
   19.1488    0.1447   -9.5218 C   0  0  0  0  0  0  0  0  0  0  0  0
   20.4941    0.1446  -10.0677 C   0  0  0  0  0  0  0  0  0  0  0  0
   21.2366   -1.0150  -10.1497 C   0  0  0  0  0  0  0  0  0  0  0  0
   22.4981   -1.0337  -10.6577 C   0  0  0  0  0  0  0  0  0  0  0  0
   23.0651    0.1394  -11.1094 C   0  0  0  0  0  0  0  0  0  0  0  0
   24.3744    0.1838  -11.6489 N   0  0  0  0  0  0  0  0  0  0  0  0
   24.8839    1.2044  -12.5181 C   0  0  0  0  0  0  0  0  0  0  0  0
   26.2358    0.7766  -12.9840 C   0  0  2  0  0  0  0  0  0  0  0  0
   26.3571    0.8751  -14.3779 O   0  0  0  0  0  0  0  0  0  0  0  0
   26.3737   -0.6773  -12.6085 C   0  0  0  0  0  0  0  0  0  0  0  0
   25.4058   -0.7745  -11.4206 C   0  0  1  0  0  0  0  0  0  0  0  0
   26.1278   -0.5997  -10.1615 C   0  0  0  0  0  0  0  0  0  0  0  0
   25.6147   -1.1362   -9.0065 C   0  0  0  0  0  0  0  0  0  0  0  0
   26.2330   -1.0163   -7.7797 C   0  0  0  0  0  0  0  0  0  0  0  0
   27.4185   -0.3315   -7.6906 C   0  0  0  0  0  0  0  0  0  0  0  0
   27.9649    0.2206   -8.8258 C   0  0  0  0  0  0  0  0  0  0  0  0
   29.1453    0.8978   -8.7119 F   0  0  0  0  0  0  0  0  0  0  0  0
   27.3210    0.0823  -10.0360 C   0  0  0  0  0  0  0  0  0  0  0  0
   22.3178    1.2657  -11.0192 N   0  0  0  0  0  0  0  0  0  0  0  0
   21.0724    1.3023  -10.5210 C   0  0  0  0  0  0  0  0  0  0  0  0
  1  2  3  0
  2  3  1  0
  3  4  2  0
  4  5  1  0
  5  6  2  0
  6  7  1  0
  8  7  1  1
  8  9  1  0
  9 10  1  6
  9 11  1  0
 11 12  1  6
 12 13  1  1
 13 14  2  0
 14 15  1  0
 15 16  2  0
 16 17  1  0
 17 18  1  0
 17 19  2  0
  6 20  1  0
 20 21  2  0
 21  3  1  0
 12  7  1  0
 19 13  1  0
M  END
$$$$
