_rank2
     RDKit          3D

 21 23  0  0  0  0  0  0  0  0999 V2000
   18.2796   -0.9021   -9.3682 N   0  0  0  0  0  0  0  0  0  0  0  0
   19.3738   -0.7783   -9.7277 C   0  0  0  0  0  0  0  0  0  0  0  0
   20.7374   -0.6121  -10.1976 C   0  0  0  0  0  0  0  0  0  0  0  0
   21.7340   -1.4960   -9.8396 C   0  0  0  0  0  0  0  0  0  0  0  0
   23.0165   -1.3558  -10.2699 C   0  0  0  0  0  0  0  0  0  0  0  0
   23.3443   -0.2985  -11.0924 C   0  0  0  0  0  0  0  0  0  0  0  0
   24.6620   -0.0992  -11.5731 N   0  0  0  0  0  0  0  0  0  0  0  0
   25.0980    1.0050  -12.3778 C   0  0  0  0  0  0  0  0  0  0  0  0
   26.5033    0.7360  -12.8024 C   0  0  2  0  0  0  0  0  0  0  0  0
   26.6674    0.9081  -14.1847 O   0  0  0  0  0  0  0  0  0  0  0  0
   26.7741   -0.7121  -12.4805 C   0  0  0  0  0  0  0  0  0  0  0  0
   25.7762   -0.9586  -11.3399 C   0  0  1  0  0  0  0  0  0  0  0  0
   26.4277   -0.7687  -10.0451 C   0  0  0  0  0  0  0  0  0  0  0  0
   27.3891   -1.6585   -9.6337 C   0  0  0  0  0  0  0  0  0  0  0  0
   28.0503   -1.5506   -8.4283 C   0  0  0  0  0  0  0  0  0  0  0  0
   27.7453   -0.5103   -7.5874 C   0  0  0  0  0  0  0  0  0  0  0  0
   26.7876    0.4023   -7.9639 C   0  0  0  0  0  0  0  0  0  0  0  0
   26.5011    1.4288   -7.1100 F   0  0  0  0  0  0  0  0  0  0  0  0
   26.1458    0.2651   -9.1754 C   0  0  0  0  0  0  0  0  0  0  0  0
   22.3499    0.5569  -11.4311 N   0  0  0  0  0  0  0  0  0  0  0  0
   21.0799    0.4336  -11.0158 C   0  0  0  0  0  0  0  0  0  0  0  0
  1  2  3  0
  2  3  1  0
  3  4  2  0
  4  5  1  0
  5  6  2  0
  6  7  1  0
  8  7  1  1
  8  9  1  0
  9 10  1  6
  9 11  1  0
 11 12  1  6
 12 13  1  1
 13 14  2  0
 14 15  1  0
 15 16  2  0
 16 17  1  0
 17 18  1  0
 17 19  2  0
  6 20  1  0
 20 21  2  0
 21  3  1  0
 12  7  1  0
 19 13  1  0
M  END
$$$$
