_rank4
     RDKit          3D

 21 23  0  0  0  0  0  0  0  0999 V2000
   18.1834    0.5155   -8.8597 N   0  0  0  0  0  0  0  0  0  0  0  0
   19.2641    0.4919   -9.2761 C   0  0  0  0  0  0  0  0  0  0  0  0
   20.6109    0.4506   -9.8168 C   0  0  0  0  0  0  0  0  0  0  0  0
   21.5048   -0.5323   -9.4459 C   0  0  0  0  0  0  0  0  0  0  0  0
   22.7700   -0.5863   -9.9418 C   0  0  0  0  0  0  0  0  0  0  0  0
   23.1853    0.3679  -10.8467 C   0  0  0  0  0  0  0  0  0  0  0  0
   24.4902    0.3647  -11.3984 N   0  0  0  0  0  0  0  0  0  0  0  0
   25.0929    1.4474  -12.1203 C   0  0  0  0  0  0  0  0  0  0  0  0
   26.3945    0.9645  -12.6683 C   0  0  2  0  0  0  0  0  0  0  0  0
   26.5186    1.2528  -14.0353 O   0  0  0  0  0  0  0  0  0  0  0  0
   26.3917   -0.5350  -12.5094 C   0  0  0  0  0  0  0  0  0  0  0  0
   25.4243   -0.7110  -11.3302 C   0  0  1  0  0  0  0  0  0  0  0  0
   26.1656   -0.7914  -10.0728 C   0  0  0  0  0  0  0  0  0  0  0  0
   26.1492   -1.9590   -9.3504 C   0  0  0  0  0  0  0  0  0  0  0  0
   26.8210   -2.1166   -8.1564 C   0  0  0  0  0  0  0  0  0  0  0  0
   27.5455   -1.0667   -7.6514 C   0  0  0  0  0  0  0  0  0  0  0  0
   27.5867    0.1199   -8.3459 C   0  0  0  0  0  0  0  0  0  0  0  0
   28.3142    1.1505   -7.8230 F   0  0  0  0  0  0  0  0  0  0  0  0
   26.9038    0.2437   -9.5361 C   0  0  0  0  0  0  0  0  0  0  0  0
   22.2910    1.3234  -11.1965 N   0  0  0  0  0  0  0  0  0  0  0  0
   21.0395    1.3917  -10.7173 C   0  0  0  0  0  0  0  0  0  0  0  0
  1  2  3  0
  2  3  1  0
  3  4  2  0
  4  5  1  0
  5  6  2  0
  6  7  1  0
  8  7  1  1
  8  9  1  0
  9 10  1  6
  9 11  1  0
 11 12  1  6
 12 13  1  1
 13 14  2  0
 14 15  1  0
 15 16  2  0
 16 17  1  0
 17 18  1  0
 17 19  2  0
  6 20  1  0
 20 21  2  0
 21  3  1  0
 12  7  1  0
 19 13  1  0
M  END
$$$$
