_rank19
     RDKit          3D

 21 23  0  0  0  0  0  0  0  0999 V2000
   18.6110    2.7229   -6.4626 N   0  0  0  0  0  0  0  0  0  0  0  0
   19.3775    2.2193   -7.1702 C   0  0  0  0  0  0  0  0  0  0  0  0
   20.3555    1.5961   -8.0436 C   0  0  0  0  0  0  0  0  0  0  0  0
   21.6483    1.3614   -7.6237 C   0  0  0  0  0  0  0  0  0  0  0  0
   22.5775    0.7791   -8.4282 C   0  0  0  0  0  0  0  0  0  0  0  0
   22.2279    0.4061   -9.7089 C   0  0  0  0  0  0  0  0  0  0  0  0
   23.1508   -0.2044  -10.5936 N   0  0  0  0  0  0  0  0  0  0  0  0
   24.4992   -0.5702  -10.2699 C   0  0  0  0  0  0  0  0  0  0  0  0
   25.1668   -1.0189  -11.5272 C   0  0  2  0  0  0  0  0  0  0  0  0
   26.4027   -0.3820  -11.7117 O   0  0  0  0  0  0  0  0  0  0  0  0
   24.2598   -0.6073  -12.6594 C   0  0  0  0  0  0  0  0  0  0  0  0
   22.8980   -0.5588  -11.9519 C   0  0  1  0  0  0  0  0  0  0  0  0
   22.1897   -1.8257  -12.1261 C   0  0  0  0  0  0  0  0  0  0  0  0
   22.3970   -2.8461  -11.2312 C   0  0  0  0  0  0  0  0  0  0  0  0
   21.7690   -4.0703  -11.3246 C   0  0  0  0  0  0  0  0  0  0  0  0
   20.8918   -4.2967  -12.3548 C   0  0  0  0  0  0  0  0  0  0  0  0
   20.6573   -3.2989  -13.2721 C   0  0  0  0  0  0  0  0  0  0  0  0
   19.7803   -3.5481  -14.2888 F   0  0  0  0  0  0  0  0  0  0  0  0
   21.3016   -2.0872  -13.1495 C   0  0  0  0  0  0  0  0  0  0  0  0
   20.9532    0.6461  -10.1000 N   0  0  0  0  0  0  0  0  0  0  0  0
   20.0241    1.2194   -9.3198 C   0  0  0  0  0  0  0  0  0  0  0  0
  1  2  3  0
  2  3  1  0
  3  4  2  0
  4  5  1  0
  5  6  2  0
  6  7  1  0
  8  7  1  1
  8  9  1  0
  9 10  1  6
  9 11  1  0
 11 12  1  6
 12 13  1  1
 13 14  2  0
 14 15  1  0
 15 16  2  0
 16 17  1  0
 17 18  1  0
 17 19  2  0
  6 20  1  0
 20 21  2  0
 21  3  1  0
 12  7  1  0
 19 13  1  0
M  END
$$$$
