_rank20
     RDKit          3D

 21 23  0  0  0  0  0  0  0  0999 V2000
   18.3638    2.8264   -6.9264 N   0  0  0  0  0  0  0  0  0  0  0  0
   19.2497    2.3562   -7.5059 C   0  0  0  0  0  0  0  0  0  0  0  0
   20.3450    1.7532   -8.2438 C   0  0  0  0  0  0  0  0  0  0  0  0
   21.5749    1.5383   -7.6573 C   0  0  0  0  0  0  0  0  0  0  0  0
   22.6120    0.9750   -8.3331 C   0  0  0  0  0  0  0  0  0  0  0  0
   22.4410    0.6018   -9.6496 C   0  0  0  0  0  0  0  0  0  0  0  0
   23.4830    0.0106  -10.4059 N   0  0  0  0  0  0  0  0  0  0  0  0
   24.7674   -0.3747   -9.8973 C   0  0  0  0  0  0  0  0  0  0  0  0
   25.6125   -0.7913  -11.0548 C   0  0  2  0  0  0  0  0  0  0  0  0
   26.8642   -0.1586  -11.0350 O   0  0  0  0  0  0  0  0  0  0  0  0
   24.8847   -0.3398  -12.2959 C   0  0  0  0  0  0  0  0  0  0  0  0
   23.4332   -0.3019  -11.7967 C   0  0  1  0  0  0  0  0  0  0  0  0
   22.7547   -1.5577  -12.1120 C   0  0  0  0  0  0  0  0  0  0  0  0
   22.2440   -1.7540  -13.3713 C   0  0  0  0  0  0  0  0  0  0  0  0
   21.5909   -2.9084  -13.7488 C   0  0  0  0  0  0  0  0  0  0  0  0
   21.4349   -3.9196  -12.8349 C   0  0  0  0  0  0  0  0  0  0  0  0
   21.9327   -3.7611  -11.5625 C   0  0  0  0  0  0  0  0  0  0  0  0
   21.7649   -4.7813  -10.6704 F   0  0  0  0  0  0  0  0  0  0  0  0
   22.5802   -2.5946  -11.2182 C   0  0  0  0  0  0  0  0  0  0  0  0
   21.2252    0.8222  -10.2051 N   0  0  0  0  0  0  0  0  0  0  0  0
   20.1916    1.3764   -9.5533 C   0  0  0  0  0  0  0  0  0  0  0  0
  1  2  3  0
  2  3  1  0
  3  4  2  0
  4  5  1  0
  5  6  2  0
  6  7  1  0
  8  7  1  1
  8  9  1  0
  9 10  1  1
  9 11  1  0
 11 12  1  6
 12 13  1  1
 13 14  2  0
 14 15  1  0
 15 16  2  0
 16 17  1  0
 17 18  1  0
 17 19  2  0
  6 20  1  0
 20 21  2  0
 21  3  1  0
 12  7  1  0
 19 13  1  0
M  END
$$$$
