_rank5
     RDKit          3D

 18 19  0  0  0  0  0  0  0  0999 V2000
   19.9381    1.6280  -10.2460 C   0  0  0  0  0  0  0  0  0  0  0  0
   20.5160    0.2714   -9.8177 C   0  0  1  0  0  0  0  0  0  0  0  0
   19.6738   -0.7834  -10.4537 C   0  0  0  0  0  0  0  0  0  0  0  0
   20.6061   -1.9570  -10.7748 C   0  0  1  0  0  0  0  0  0  0  0  0
   19.7977   -3.1590  -11.1765 C   0  0  0  0  0  0  0  0  0  0  0  0
   21.4647   -1.4313  -11.9075 C   0  0  0  0  0  0  0  0  0  0  0  0
   22.4405   -0.4522  -11.2968 C   0  0  2  0  0  0  0  0  0  0  0  0
   23.6295   -1.1595  -11.0783 O   0  0  0  0  0  0  0  0  0  0  0  0
   24.8861   -0.7118  -10.8803 C   0  0  0  0  0  0  0  0  0  0  0  0
   25.5596   -0.2119  -12.0033 C   0  0  0  0  0  0  0  0  0  0  0  0
   26.8474    0.2641  -11.8811 C   0  0  0  0  0  0  0  0  0  0  0  0
   27.5326    0.7586  -12.9571 F   0  0  0  0  0  0  0  0  0  0  0  0
   27.5129    0.2682  -10.6740 C   0  0  0  0  0  0  0  0  0  0  0  0
   26.8647   -0.2201   -9.5595 C   0  0  0  0  0  0  0  0  0  0  0  0
   27.4981   -0.2479   -8.2610 C   0  0  0  0  0  0  0  0  0  0  0  0
   27.9914   -0.2717   -7.2287 N   0  0  0  0  0  0  0  0  0  0  0  0
   25.5573   -0.7022   -9.6890 C   0  0  0  0  0  0  0  0  0  0  0  0
   21.9658    0.1691  -10.0292 C   0  0  0  0  0  0  0  0  0  0  0  0
  2  1  1  6
  3  2  1  1
  3  4  1  0
  4  5  1  6
  4  6  1  0
  6  7  1  6
  7  8  1  1
  8  9  1  0
  9 10  2  0
 10 11  1  0
 11 12  1  0
 11 13  2  0
 13 14  1  0
 14 15  1  0
 15 16  3  0
 14 17  2  0
 18  7  1  6
 18  2  1  0
 17  9  1  0
M  END
$$$$
