_rank17
     RDKit          3D

 18 19  0  0  0  0  0  0  0  0999 V2000
   20.3510   -2.4542  -12.3711 C   0  0  0  0  0  0  0  0  0  0  0  0
   20.6159   -1.0167  -11.9007 C   0  0  1  0  0  0  0  0  0  0  0  0
   19.6664   -0.7400  -10.7834 C   0  0  0  0  0  0  0  0  0  0  0  0
   20.3931    0.1940   -9.8091 C   0  0  1  0  0  0  0  0  0  0  0  0
   19.4237    0.7297   -8.7929 C   0  0  0  0  0  0  0  0  0  0  0  0
   21.4529   -0.6932   -9.1875 C   0  0  0  0  0  0  0  0  0  0  0  0
   22.5215   -0.8967  -10.2366 C   0  0  2  0  0  0  0  0  0  0  0  0
   23.5270    0.0406   -9.9672 O   0  0  0  0  0  0  0  0  0  0  0  0
   24.8671   -0.1055   -9.9298 C   0  0  0  0  0  0  0  0  0  0  0  0
   25.4712   -0.6585  -11.0672 C   0  0  0  0  0  0  0  0  0  0  0  0
   26.8371   -0.8393  -11.1049 C   0  0  0  0  0  0  0  0  0  0  0  0
   27.4580   -1.3763  -12.1995 F   0  0  0  0  0  0  0  0  0  0  0  0
   27.6493   -0.4909  -10.0471 C   0  0  0  0  0  0  0  0  0  0  0  0
   27.0710    0.0544   -8.9207 C   0  0  0  0  0  0  0  0  0  0  0  0
   27.8578    0.4438   -7.7729 C   0  0  0  0  0  0  0  0  0  0  0  0
   28.4730    0.7535   -6.8591 N   0  0  0  0  0  0  0  0  0  0  0  0
   25.6837    0.2359   -8.8875 C   0  0  0  0  0  0  0  0  0  0  0  0
   22.0355   -0.7485  -11.6366 C   0  0  0  0  0  0  0  0  0  0  0  0
  2  1  1  1
  3  2  1  1
  3  4  1  0
  4  5  1  1
  4  6  1  0
  6  7  1  6
  7  8  1  1
  8  9  1  0
  9 10  2  0
 10 11  1  0
 11 12  1  0
 11 13  2  0
 13 14  1  0
 14 15  1  0
 15 16  3  0
 14 17  2  0
 18  7  1  6
 18  2  1  0
 17  9  1  0
M  END
$$$$
