_rank9
     RDKit          3D

 18 19  0  0  0  0  0  0  0  0999 V2000
   27.6942    2.0469  -11.0952 C   0  0  0  0  0  0  0  0  0  0  0  0
   27.3548    0.5541  -10.9773 C   0  0  1  0  0  0  0  0  0  0  0  0
   27.6516    0.1475   -9.5727 C   0  0  0  0  0  0  0  0  0  0  0  0
   26.6217   -0.9240   -9.1975 C   0  0  1  0  0  0  0  0  0  0  0  0
   27.0074   -1.5732   -7.8977 C   0  0  0  0  0  0  0  0  0  0  0  0
   25.3226   -0.1504   -9.0958 C   0  0  0  0  0  0  0  0  0  0  0  0
   24.8952    0.1721  -10.5090 C   0  0  2  0  0  0  0  0  0  0  0  0
   23.9706   -0.8127  -10.8794 O   0  0  0  0  0  0  0  0  0  0  0  0
   22.6235   -0.7701  -10.9259 C   0  0  0  0  0  0  0  0  0  0  0  0
   22.0023   -1.5684  -11.8961 C   0  0  0  0  0  0  0  0  0  0  0  0
   20.6285   -1.5786  -12.0059 C   0  0  0  0  0  0  0  0  0  0  0  0
   19.9910   -2.3464  -12.9419 F   0  0  0  0  0  0  0  0  0  0  0  0
   19.8245   -0.8196  -11.1828 C   0  0  0  0  0  0  0  0  0  0  0  0
   20.4196   -0.0287  -10.2231 C   0  0  0  0  0  0  0  0  0  0  0  0
   19.6423    0.7938   -9.3245 C   0  0  0  0  0  0  0  0  0  0  0  0
   19.0226    1.4491   -8.6202 N   0  0  0  0  0  0  0  0  0  0  0  0
   21.8150   -0.0219  -10.1158 C   0  0  0  0  0  0  0  0  0  0  0  0
   26.0174    0.2245  -11.4869 C   0  0  0  0  0  0  0  0  0  0  0  0
  2  1  1  1
  3  2  1  1
  3  4  1  0
  4  5  1  1
  4  6  1  0
  6  7  1  6
  7  8  1  6
  8  9  1  0
  9 10  2  0
 10 11  1  0
 11 12  1  0
 11 13  2  0
 13 14  1  0
 14 15  1  0
 15 16  3  0
 14 17  2  0
 18  7  1  6
 18  2  1  0
 17  9  1  0
M  END
$$$$
