_rank2
     RDKit          3D

 18 19  0  0  0  0  0  0  0  0999 V2000
   27.3630   -1.0722   -7.8569 C   0  0  0  0  0  0  0  0  0  0  0  0
   26.9369   -0.0122   -8.8828 C   0  0  1  0  0  0  0  0  0  0  0  0
   27.5494   -0.3957  -10.1883 C   0  0  0  0  0  0  0  0  0  0  0  0
   26.5619    0.0310  -11.2802 C   0  0  1  0  0  0  0  0  0  0  0  0
   27.2118   -0.0799  -12.6311 C   0  0  0  0  0  0  0  0  0  0  0  0
   25.4055   -0.9339  -11.1125 C   0  0  0  0  0  0  0  0  0  0  0  0
   24.6578   -0.5069   -9.8706 C   0  0  2  0  0  0  0  0  0  0  0  0
   23.5868    0.2853  -10.3036 O   0  0  0  0  0  0  0  0  0  0  0  0
   22.2624    0.0313  -10.3117 C   0  0  0  0  0  0  0  0  0  0  0  0
   21.8701   -1.2481  -10.7287 C   0  0  0  0  0  0  0  0  0  0  0  0
   20.5337   -1.5834  -10.7641 C   0  0  0  0  0  0  0  0  0  0  0  0
   20.1174   -2.8232  -11.1661 F   0  0  0  0  0  0  0  0  0  0  0  0
   19.5474   -0.6928  -10.3984 C   0  0  0  0  0  0  0  0  0  0  0  0
   19.9162    0.5699   -9.9857 C   0  0  0  0  0  0  0  0  0  0  0  0
   18.9389    1.5570   -9.5873 C   0  0  0  0  0  0  0  0  0  0  0  0
   18.1637    2.3410   -9.2807 N   0  0  0  0  0  0  0  0  0  0  0  0
   21.2745    0.9054   -9.9516 C   0  0  0  0  0  0  0  0  0  0  0  0
   25.4899    0.2389   -8.8858 C   0  0  0  0  0  0  0  0  0  0  0  0
  2  1  1  1
  3  2  1  1
  3  4  1  0
  4  5  1  6
  4  6  1  0
  6  7  1  6
  7  8  1  6
  8  9  1  0
  9 10  2  0
 10 11  1  0
 11 12  1  0
 11 13  2  0
 13 14  1  0
 14 15  1  0
 15 16  3  0
 14 17  2  0
 18  7  1  6
 18  2  1  0
 17  9  1  0
M  END
$$$$
