_rank20
     RDKit          3D

 18 19  0  0  0  0  0  0  0  0999 V2000
   20.5233    0.7245   -8.5660 C   0  0  0  0  0  0  0  0  0  0  0  0
   21.1300   -0.5578   -9.1537 C   0  0  1  0  0  0  0  0  0  0  0  0
   20.2012   -1.0321  -10.2209 C   0  0  0  0  0  0  0  0  0  0  0  0
   21.0703   -1.6782  -11.3058 C   0  0  1  0  0  0  0  0  0  0  0  0
   20.2017   -2.4116  -12.2893 C   0  0  0  0  0  0  0  0  0  0  0  0
   21.7907   -0.5020  -11.9334 C   0  0  0  0  0  0  0  0  0  0  0  0
   22.8479   -0.0615  -10.9475 C   0  0  2  0  0  0  0  0  0  0  0  0
   24.0446   -0.6680  -11.3499 O   0  0  0  0  0  0  0  0  0  0  0  0
   25.2539   -0.6904  -10.7534 C   0  0  0  0  0  0  0  0  0  0  0  0
   26.2750   -1.3741  -11.4277 C   0  0  0  0  0  0  0  0  0  0  0  0
   27.5387   -1.4411  -10.8817 C   0  0  0  0  0  0  0  0  0  0  0  0
   28.5574   -2.1004  -11.5139 F   0  0  0  0  0  0  0  0  0  0  0  0
   27.8449   -0.8506   -9.6744 C   0  0  0  0  0  0  0  0  0  0  0  0
   26.8520   -0.1742   -8.9982 C   0  0  0  0  0  0  0  0  0  0  0  0
   27.0978    0.4697   -7.7281 C   0  0  0  0  0  0  0  0  0  0  0  0
   27.2876    0.9869   -6.7252 N   0  0  0  0  0  0  0  0  0  0  0  0
   25.5705   -0.1091   -9.5569 C   0  0  0  0  0  0  0  0  0  0  0  0
   22.5413   -0.4077   -9.5317 C   0  0  0  0  0  0  0  0  0  0  0  0
  2  1  1  6
  3  2  1  1
  3  4  1  0
  4  5  1  6
  4  6  1  0
  6  7  1  6
  7  8  1  6
  8  9  1  0
  9 10  2  0
 10 11  1  0
 11 12  1  0
 11 13  2  0
 13 14  1  0
 14 15  1  0
 15 16  3  0
 14 17  2  0
 18  7  1  6
 18  2  1  0
 17  9  1  0
M  END
$$$$
