_rank1
     RDKit          3D

 18 19  0  0  0  0  0  0  0  0999 V2000
   27.0915    1.4269  -12.1035 C   0  0  0  0  0  0  0  0  0  0  0  0
   26.7764    0.0687  -11.4604 C   0  0  1  0  0  0  0  0  0  0  0  0
   27.3233    0.1043  -10.0726 C   0  0  0  0  0  0  0  0  0  0  0  0
   26.3769   -0.7328   -9.2047 C   0  0  1  0  0  0  0  0  0  0  0  0
   26.9917   -0.9653   -7.8529 C   0  0  0  0  0  0  0  0  0  0  0  0
   25.1196    0.1101   -9.1323 C   0  0  0  0  0  0  0  0  0  0  0  0
   24.4425   -0.0001  -10.4789 C   0  0  2  0  0  0  0  0  0  0  0  0
   23.4640   -0.9942  -10.3519 O   0  0  0  0  0  0  0  0  0  0  0  0
   22.1202   -0.9091  -10.4275 C   0  0  0  0  0  0  0  0  0  0  0  0
   21.4532   -1.9952  -11.0106 C   0  0  0  0  0  0  0  0  0  0  0  0
   20.0797   -1.9823  -11.1237 C   0  0  0  0  0  0  0  0  0  0  0  0
   19.3982   -3.0261  -11.6876 F   0  0  0  0  0  0  0  0  0  0  0  0
   19.3201   -0.9223  -10.6771 C   0  0  0  0  0  0  0  0  0  0  0  0
   19.9606    0.1541  -10.1010 C   0  0  0  0  0  0  0  0  0  0  0  0
   19.2313    1.3009   -9.6099 C   0  0  0  0  0  0  0  0  0  0  0  0
   18.6617    2.2140   -9.2208 N   0  0  0  0  0  0  0  0  0  0  0  0
   21.3554    0.1360   -9.9886 C   0  0  0  0  0  0  0  0  0  0  0  0
   25.3678   -0.3230  -11.6004 C   0  0  0  0  0  0  0  0  0  0  0  0
  2  1  1  1
  3  2  1  1
  3  4  1  0
  4  5  1  1
  4  6  1  0
  6  7  1  6
  7  8  1  1
  8  9  1  0
  9 10  2  0
 10 11  1  0
 11 12  1  0
 11 13  2  0
 13 14  1  0
 14 15  1  0
 15 16  3  0
 14 17  2  0
 18  7  1  6
 18  2  1  0
 17  9  1  0
M  END
$$$$
