_rank18
     RDKit          3D

 18 19  0  0  0  0  0  0  0  0999 V2000
   20.3131    1.1796   -8.8138 C   0  0  0  0  0  0  0  0  0  0  0  0
   20.9258   -0.2090   -9.0465 C   0  0  1  0  0  0  0  0  0  0  0  0
   19.9799   -0.9639   -9.9193 C   0  0  0  0  0  0  0  0  0  0  0  0
   20.8333   -1.8735  -10.8103 C   0  0  1  0  0  0  0  0  0  0  0  0
   19.9535   -2.8544  -11.5337 C   0  0  0  0  0  0  0  0  0  0  0  0
   21.5206   -0.9065  -11.7532 C   0  0  0  0  0  0  0  0  0  0  0  0
   22.5935   -0.2051  -10.9528 C   0  0  2  0  0  0  0  0  0  0  0  0
   23.7898   -0.8880  -11.2068 O   0  0  0  0  0  0  0  0  0  0  0  0
   25.0510   -0.6107  -10.8181 C   0  0  0  0  0  0  0  0  0  0  0  0
   26.0386   -0.6519  -11.8118 C   0  0  0  0  0  0  0  0  0  0  0  0
   27.3516   -0.3803  -11.4924 C   0  0  0  0  0  0  0  0  0  0  0  0
   28.3395   -0.4119  -12.4384 F   0  0  0  0  0  0  0  0  0  0  0  0
   27.7402   -0.0632  -10.2085 C   0  0  0  0  0  0  0  0  0  0  0  0
   26.7812   -0.0184   -9.2191 C   0  0  0  0  0  0  0  0  0  0  0  0
   27.1129    0.3064   -7.8507 C   0  0  0  0  0  0  0  0  0  0  0  0
   27.3833    0.5680   -6.7700 N   0  0  0  0  0  0  0  0  0  0  0  0
   25.4494   -0.2950   -9.5487 C   0  0  0  0  0  0  0  0  0  0  0  0
   22.3254   -0.1553   -9.4886 C   0  0  0  0  0  0  0  0  0  0  0  0
  2  1  1  6
  3  2  1  1
  3  4  1  0
  4  5  1  6
  4  6  1  0
  6  7  1  6
  7  8  1  1
  8  9  1  0
  9 10  2  0
 10 11  1  0
 11 12  1  0
 11 13  2  0
 13 14  1  0
 14 15  1  0
 15 16  3  0
 14 17  2  0
 18  7  1  6
 18  2  1  0
 17  9  1  0
M  END
$$$$
