_rank6
     RDKit          3D

 18 19  0  0  0  0  0  0  0  0999 V2000
   19.6916   -3.0541  -10.2874 C   0  0  0  0  0  0  0  0  0  0  0  0
   20.1307   -1.8546  -11.1395 C   0  0  1  0  0  0  0  0  0  0  0  0
   19.6855   -0.6232  -10.4240 C   0  0  0  0  0  0  0  0  0  0  0  0
   20.7395    0.4540  -10.7038 C   0  0  1  0  0  0  0  0  0  0  0  0
   20.2396    1.7934  -10.2395 C   0  0  0  0  0  0  0  0  0  0  0  0
   21.9480   -0.0169   -9.9201 C   0  0  0  0  0  0  0  0  0  0  0  0
   22.5301   -1.1876  -10.6780 C   0  0  2  0  0  0  0  0  0  0  0  0
   23.5710   -0.6755  -11.4629 O   0  0  0  0  0  0  0  0  0  0  0  0
   24.8490   -0.3923  -11.1386 C   0  0  0  0  0  0  0  0  0  0  0  0
   25.7008   -0.0351  -12.1928 C   0  0  0  0  0  0  0  0  0  0  0  0
   27.0215    0.2685  -11.9412 C   0  0  0  0  0  0  0  0  0  0  0  0
   27.8791    0.6208  -12.9473 F   0  0  0  0  0  0  0  0  0  0  0  0
   27.5489    0.2342  -10.6681 C   0  0  0  0  0  0  0  0  0  0  0  0
   26.7245   -0.1152   -9.6197 C   0  0  0  0  0  0  0  0  0  0  0  0
   27.2059   -0.1730   -8.2585 C   0  0  0  0  0  0  0  0  0  0  0  0
   27.5925   -0.2113   -7.1821 N   0  0  0  0  0  0  0  0  0  0  0  0
   25.3843   -0.4226   -9.8807 C   0  0  0  0  0  0  0  0  0  0  0  0
   21.5455   -1.9111  -11.5297 C   0  0  0  0  0  0  0  0  0  0  0  0
  2  1  1  1
  3  2  1  1
  3  4  1  0
  4  5  1  1
  4  6  1  0
  6  7  1  6
  7  8  1  6
  8  9  1  0
  9 10  2  0
 10 11  1  0
 11 12  1  0
 11 13  2  0
 13 14  1  0
 14 15  1  0
 15 16  3  0
 14 17  2  0
 18  7  1  6
 18  2  1  0
 17  9  1  0
M  END
$$$$
