_rank4
     RDKit          3D

 18 19  0  0  0  0  0  0  0  0999 V2000
   19.7370    1.5890  -10.5319 C   0  0  0  0  0  0  0  0  0  0  0  0
   20.2679    0.3380   -9.8171 C   0  0  1  0  0  0  0  0  0  0  0  0
   19.5179   -0.8301  -10.3643 C   0  0  0  0  0  0  0  0  0  0  0  0
   20.4912   -2.0143  -10.3710 C   0  0  1  0  0  0  0  0  0  0  0  0
   19.7470   -3.2879  -10.6602 C   0  0  0  0  0  0  0  0  0  0  0  0
   21.4783   -1.6588  -11.4645 C   0  0  0  0  0  0  0  0  0  0  0  0
   22.3646   -0.5658  -10.9135 C   0  0  2  0  0  0  0  0  0  0  0  0
   23.5230   -1.1942  -10.4392 O   0  0  0  0  0  0  0  0  0  0  0  0
   24.7997   -0.7608  -10.4095 C   0  0  0  0  0  0  0  0  0  0  0  0
   25.4123   -0.5243  -11.6478 C   0  0  0  0  0  0  0  0  0  0  0  0
   26.7159   -0.0798  -11.6998 C   0  0  0  0  0  0  0  0  0  0  0  0
   27.3430    0.1606  -12.8918 F   0  0  0  0  0  0  0  0  0  0  0  0
   27.4565    0.1459  -10.5594 C   0  0  0  0  0  0  0  0  0  0  0  0
   26.8689   -0.0819   -9.3332 C   0  0  0  0  0  0  0  0  0  0  0  0
   27.5823    0.1324   -8.0950 C   0  0  0  0  0  0  0  0  0  0  0  0
   28.1553    0.3022   -7.1191 N   0  0  0  0  0  0  0  0  0  0  0  0
   25.5450   -0.5331   -9.2859 C   0  0  0  0  0  0  0  0  0  0  0  0
   21.7334    0.2425   -9.8335 C   0  0  0  0  0  0  0  0  0  0  0  0
  2  1  1  6
  3  2  1  1
  3  4  1  0
  4  5  1  6
  4  6  1  0
  6  7  1  6
  7  8  1  1
  8  9  1  0
  9 10  2  0
 10 11  1  0
 11 12  1  0
 11 13  2  0
 13 14  1  0
 14 15  1  0
 15 16  3  0
 14 17  2  0
 18  7  1  6
 18  2  1  0
 17  9  1  0
M  END
$$$$
