_rank1
     RDKit          3D

 21 23  0  0  0  0  0  0  0  0999 V2000
   18.1057   -1.8051   -9.8650 N   0  0  0  0  0  0  0  0  0  0  0  0
   19.2046   -1.5328  -10.1437 C   0  0  0  0  0  0  0  0  0  0  0  0
   20.5483   -1.2089  -10.4613 C   0  0  0  0  0  0  0  0  0  0  0  0
   21.5655   -1.9937   -9.9354 C   0  0  0  0  0  0  0  0  0  0  0  0
   22.8695   -1.7039  -10.2386 C   0  0  0  0  0  0  0  0  0  0  0  0
   23.2422   -0.6486  -11.0594 C   0  0  0  0  0  0  0  0  0  0  0  0
   24.5773   -0.3773  -11.3792 N   0  0  0  0  0  0  0  0  0  0  0  0
   25.0531    0.8644  -11.9345 C   0  0  0  0  0  0  0  0  0  0  0  0
   26.2872    0.5555  -12.7338 C   0  0  1  0  0  0  0  0  0  0  0  0
   27.3325    1.3614  -12.3566 O   0  0  0  0  0  0  0  0  0  0  0  0
   26.5135   -0.9174  -12.5232 C   0  0  0  0  0  0  0  0  0  0  0  0
   25.7521   -1.2246  -11.2566 C   0  0  1  0  0  0  0  0  0  0  0  0
   26.5389   -0.9574  -10.0631 C   0  0  0  0  0  0  0  0  0  0  0  0
   27.1944   -1.9365   -9.3738 C   0  0  0  0  0  0  0  0  0  0  0  0
   27.9550   -1.6407   -8.2246 C   0  0  0  0  0  0  0  0  0  0  0  0
   28.0226   -0.3390   -7.8105 C   0  0  0  0  0  0  0  0  0  0  0  0
   27.3615    0.6540   -8.5047 C   0  0  0  0  0  0  0  0  0  0  0  0
   27.4665    1.9333   -8.0416 F   0  0  0  0  0  0  0  0  0  0  0  0
   26.6321    0.3296   -9.6171 C   0  0  0  0  0  0  0  0  0  0  0  0
   22.2009    0.0978  -11.5530 N   0  0  0  0  0  0  0  0  0  0  0  0
   20.9191   -0.1612  -11.2733 C   0  0  0  0  0  0  0  0  0  0  0  0
  1  2  3  0
  2  3  1  0
  3  4  2  0
  4  5  1  0
  5  6  2  0
  6  7  1  0
  8  7  1  6
  8  9  1  0
  9 10  1  1
  9 11  1  0
 11 12  1  6
 12 13  1  1
 13 14  2  0
 14 15  1  0
 15 16  2  0
 16 17  1  0
 17 18  1  0
 17 19  2  0
  6 20  1  0
 20 21  2  0
 21  3  1  0
 12  7  1  0
 19 13  1  0
M  END
$$$$
