_rank15
     RDKit          3D

 21 23  0  0  0  0  0  0  0  0999 V2000
   29.9310   -0.4979   -6.3654 N   0  0  0  0  0  0  0  0  0  0  0  0
   29.0905   -0.4133   -7.1691 C   0  0  0  0  0  0  0  0  0  0  0  0
   28.0740   -0.2877   -8.1500 C   0  0  0  0  0  0  0  0  0  0  0  0
   28.3865   -0.5670   -9.4735 C   0  0  0  0  0  0  0  0  0  0  0  0
   27.4161   -0.4619  -10.4346 C   0  0  0  0  0  0  0  0  0  0  0  0
   26.1097   -0.0846  -10.1571 C   0  0  0  0  0  0  0  0  0  0  0  0
   25.1224   -0.0030  -11.1456 N   0  0  0  0  0  0  0  0  0  0  0  0
   25.1762   -0.6771  -12.4181 C   0  0  0  0  0  0  0  0  0  0  0  0
   24.3774    0.1401  -13.3936 C   0  0  1  0  0  0  0  0  0  0  0  0
   23.4432   -0.6343  -14.0355 O   0  0  0  0  0  0  0  0  0  0  0  0
   23.8112    1.2641  -12.5685 C   0  0  0  0  0  0  0  0  0  0  0  0
   23.8753    0.7439  -11.1530 C   0  0  1  0  0  0  0  0  0  0  0  0
   22.7140   -0.0613  -10.8095 C   0  0  0  0  0  0  0  0  0  0  0  0
   22.0545    0.0598   -9.6205 C   0  0  0  0  0  0  0  0  0  0  0  0
   20.9267   -0.7319   -9.3235 C   0  0  0  0  0  0  0  0  0  0  0  0
   20.5035   -1.6332  -10.2611 C   0  0  0  0  0  0  0  0  0  0  0  0
   21.1674   -1.7586  -11.4646 C   0  0  0  0  0  0  0  0  0  0  0  0
   20.6976   -2.6760  -12.3589 F   0  0  0  0  0  0  0  0  0  0  0  0
   22.2594   -0.9726  -11.7188 C   0  0  0  0  0  0  0  0  0  0  0  0
   25.8514    0.1820   -8.8353 N   0  0  0  0  0  0  0  0  0  0  0  0
   26.7787    0.0885   -7.8762 C   0  0  0  0  0  0  0  0  0  0  0  0
  1  2  3  0
  2  3  1  0
  3  4  2  0
  4  5  1  0
  5  6  2  0
  6  7  1  0
  8  7  1  6
  8  9  1  0
  9 10  1  1
  9 11  1  0
 11 12  1  6
 12 13  1  6
 13 14  2  0
 14 15  1  0
 15 16  2  0
 16 17  1  0
 17 18  1  0
 17 19  2  0
  6 20  1  0
 20 21  2  0
 21  3  1  0
 12  7  1  0
 19 13  1  0
M  END
$$$$
