_rank19
     RDKit          3D

 21 23  0  0  0  0  0  0  0  0999 V2000
   29.3652    0.0070   -7.4129 N   0  0  0  0  0  0  0  0  0  0  0  0
   28.4047   -0.0971   -8.0657 C   0  0  0  0  0  0  0  0  0  0  0  0
   27.2489   -0.2169   -8.8787 C   0  0  0  0  0  0  0  0  0  0  0  0
   27.3395   -0.9322  -10.0651 C   0  0  0  0  0  0  0  0  0  0  0  0
   26.2319   -1.0686  -10.8594 C   0  0  0  0  0  0  0  0  0  0  0  0
   24.9966   -0.5221  -10.5408 C   0  0  0  0  0  0  0  0  0  0  0  0
   23.8673   -0.6881  -11.3505 N   0  0  0  0  0  0  0  0  0  0  0  0
   23.6196   -1.8327  -12.1902 C   0  0  0  0  0  0  0  0  0  0  0  0
   22.7612   -1.3731  -13.3345 C   0  0  1  0  0  0  0  0  0  0  0  0
   21.6464   -2.1640  -13.4622 O   0  0  0  0  0  0  0  0  0  0  0  0
   22.4809    0.0753  -13.0370 C   0  0  0  0  0  0  0  0  0  0  0  0
   22.7321    0.1969  -11.5536 C   0  0  1  0  0  0  0  0  0  0  0  0
   21.5645   -0.1661  -10.7662 C   0  0  0  0  0  0  0  0  0  0  0  0
   21.4096   -1.3964  -10.1955 C   0  0  0  0  0  0  0  0  0  0  0  0
   20.2680   -1.7119   -9.4314 C   0  0  0  0  0  0  0  0  0  0  0  0
   19.3091   -0.7498   -9.2728 C   0  0  0  0  0  0  0  0  0  0  0  0
   19.4619    0.4956   -9.8480 C   0  0  0  0  0  0  0  0  0  0  0  0
   18.4703    1.4128   -9.6544 F   0  0  0  0  0  0  0  0  0  0  0  0
   20.5845    0.7667  -10.5836 C   0  0  0  0  0  0  0  0  0  0  0  0
   24.9588    0.1765   -9.3595 N   0  0  0  0  0  0  0  0  0  0  0  0
   26.0239    0.3265   -8.5648 C   0  0  0  0  0  0  0  0  0  0  0  0
  1  2  3  0
  2  3  1  0
  3  4  2  0
  4  5  1  0
  5  6  2  0
  6  7  1  0
  8  7  1  6
  8  9  1  0
  9 10  1  1
  9 11  1  0
 11 12  1  6
 12 13  1  1
 13 14  2  0
 14 15  1  0
 15 16  2  0
 16 17  1  0
 17 18  1  0
 17 19  2  0
  6 20  1  0
 20 21  2  0
 21  3  1  0
 12  7  1  0
 19 13  1  0
M  END
$$$$
