_rank7
     RDKit          3D

 21 23  0  0  0  0  0  0  0  0999 V2000
   17.8468    1.1596   -8.5017 N   0  0  0  0  0  0  0  0  0  0  0  0
   18.8916    0.9156   -8.9582 C   0  0  0  0  0  0  0  0  0  0  0  0
   20.1646    0.6416   -9.5199 C   0  0  0  0  0  0  0  0  0  0  0  0
   20.6718    1.5097  -10.4772 C   0  0  0  0  0  0  0  0  0  0  0  0
   21.9042    1.2686  -11.0242 C   0  0  0  0  0  0  0  0  0  0  0  0
   22.6937    0.1835  -10.6699 C   0  0  0  0  0  0  0  0  0  0  0  0
   23.9609   -0.0386  -11.2205 N   0  0  0  0  0  0  0  0  0  0  0  0
   24.6020    0.8234  -12.1809 C   0  0  0  0  0  0  0  0  0  0  0  0
   25.5346   -0.0271  -12.9960 C   0  0  1  0  0  0  0  0  0  0  0  0
   26.7990    0.5072  -13.0141 O   0  0  0  0  0  0  0  0  0  0  0  0
   25.4328   -1.3958  -12.3785 C   0  0  0  0  0  0  0  0  0  0  0  0
   24.8933   -1.1306  -10.9939 C   0  0  1  0  0  0  0  0  0  0  0  0
   25.9471   -0.8072  -10.0453 C   0  0  0  0  0  0  0  0  0  0  0  0
   27.1872   -1.3758  -10.0940 C   0  0  0  0  0  0  0  0  0  0  0  0
   28.1881   -1.0330   -9.1626 C   0  0  0  0  0  0  0  0  0  0  0  0
   27.8873   -0.1098   -8.1994 C   0  0  0  0  0  0  0  0  0  0  0  0
   26.6347    0.4676   -8.1469 C   0  0  0  0  0  0  0  0  0  0  0  0
   26.3952    1.3813   -7.1622 F   0  0  0  0  0  0  0  0  0  0  0  0
   25.6871    0.1104   -9.0685 C   0  0  0  0  0  0  0  0  0  0  0  0
   22.1478   -0.6455   -9.7213 N   0  0  0  0  0  0  0  0  0  0  0  0
   20.9473   -0.4354   -9.1708 C   0  0  0  0  0  0  0  0  0  0  0  0
  1  2  3  0
  2  3  1  0
  3  4  2  0
  4  5  1  0
  5  6  2  0
  6  7  1  0
  8  7  1  6
  8  9  1  0
  9 10  1  1
  9 11  1  0
 11 12  1  6
 12 13  1  1
 13 14  2  0
 14 15  1  0
 15 16  2  0
 16 17  1  0
 17 18  1  0
 17 19  2  0
  6 20  1  0
 20 21  2  0
 21  3  1  0
 12  7  1  0
 19 13  1  0
M  END
$$$$
