_rank13
     RDKit          3D

 21 23  0  0  0  0  0  0  0  0999 V2000
   29.5613   -0.4844   -6.4564 N   0  0  0  0  0  0  0  0  0  0  0  0
   28.7265   -0.3789   -7.2635 C   0  0  0  0  0  0  0  0  0  0  0  0
   27.7205   -0.2689   -8.2570 C   0  0  0  0  0  0  0  0  0  0  0  0
   28.0238   -0.6478   -9.5577 C   0  0  0  0  0  0  0  0  0  0  0  0
   27.0628   -0.5592  -10.5298 C   0  0  0  0  0  0  0  0  0  0  0  0
   25.7750   -0.1031  -10.2857 C   0  0  0  0  0  0  0  0  0  0  0  0
   24.7961   -0.0388  -11.2838 N   0  0  0  0  0  0  0  0  0  0  0  0
   24.8466   -0.7580  -12.5316 C   0  0  0  0  0  0  0  0  0  0  0  0
   24.0692    0.0384  -13.5410 C   0  0  1  0  0  0  0  0  0  0  0  0
   23.1258   -0.7415  -14.1624 O   0  0  0  0  0  0  0  0  0  0  0  0
   23.5175    1.2005  -12.7598 C   0  0  0  0  0  0  0  0  0  0  0  0
   23.5626    0.7291  -11.3266 C   0  0  1  0  0  0  0  0  0  0  0  0
   22.3848   -0.0431  -10.9639 C   0  0  0  0  0  0  0  0  0  0  0  0
   22.4003   -1.4023  -10.8389 C   0  0  0  0  0  0  0  0  0  0  0  0
   21.2413   -2.1188  -10.4779 C   0  0  0  0  0  0  0  0  0  0  0  0
   20.0896   -1.4162  -10.2537 C   0  0  0  0  0  0  0  0  0  0  0  0
   20.0697   -0.0418  -10.3789 C   0  0  0  0  0  0  0  0  0  0  0  0
   18.8902    0.6025  -10.1431 F   0  0  0  0  0  0  0  0  0  0  0  0
   21.2149    0.6210  -10.7311 C   0  0  0  0  0  0  0  0  0  0  0  0
   25.5252    0.2605   -8.9856 N   0  0  0  0  0  0  0  0  0  0  0  0
   26.4437    0.1853   -8.0165 C   0  0  0  0  0  0  0  0  0  0  0  0
  1  2  3  0
  2  3  1  0
  3  4  2  0
  4  5  1  0
  5  6  2  0
  6  7  1  0
  8  7  1  6
  8  9  1  0
  9 10  1  1
  9 11  1  0
 11 12  1  6
 12 13  1  6
 13 14  2  0
 14 15  1  0
 15 16  2  0
 16 17  1  0
 17 18  1  0
 17 19  2  0
  6 20  1  0
 20 21  2  0
 21  3  1  0
 12  7  1  0
 19 13  1  0
M  END
$$$$
