_rank10
     RDKit          3D

 21 23  0  0  0  0  0  0  0  0999 V2000
   29.2599    0.6870   -7.9963 N   0  0  0  0  0  0  0  0  0  0  0  0
   28.2540    0.3924   -8.5069 C   0  0  0  0  0  0  0  0  0  0  0  0
   27.0333    0.0118   -9.1204 C   0  0  0  0  0  0  0  0  0  0  0  0
   26.5137   -1.2463   -8.8472 C   0  0  0  0  0  0  0  0  0  0  0  0
   25.3305   -1.6290   -9.4214 C   0  0  0  0  0  0  0  0  0  0  0  0
   24.6039   -0.8150  -10.2791 C   0  0  0  0  0  0  0  0  0  0  0  0
   23.3847   -1.2101  -10.8412 N   0  0  0  0  0  0  0  0  0  0  0  0
   22.8065   -2.5234  -10.7095 C   0  0  0  0  0  0  0  0  0  0  0  0
   21.9492   -2.7605  -11.9203 C   0  0  1  0  0  0  0  0  0  0  0  0
   20.6829   -3.1479  -11.5587 O   0  0  0  0  0  0  0  0  0  0  0  0
   22.0221   -1.4704  -12.6919 C   0  0  0  0  0  0  0  0  0  0  0  0
   22.4523   -0.4546  -11.6616 C   0  0  1  0  0  0  0  0  0  0  0  0
   21.3258    0.0831  -10.9153 C   0  0  0  0  0  0  0  0  0  0  0  0
   21.4370    1.1543  -10.0766 C   0  0  0  0  0  0  0  0  0  0  0  0
   20.3220    1.6547   -9.3743 C   0  0  0  0  0  0  0  0  0  0  0  0
   19.1146    1.0376   -9.5525 C   0  0  0  0  0  0  0  0  0  0  0  0
   18.9978   -0.0457  -10.3998 C   0  0  0  0  0  0  0  0  0  0  0  0
   17.7670   -0.6190  -10.5352 F   0  0  0  0  0  0  0  0  0  0  0  0
   20.1027   -0.5044  -11.0660 C   0  0  0  0  0  0  0  0  0  0  0  0
   25.1596    0.4174  -10.5185 N   0  0  0  0  0  0  0  0  0  0  0  0
   26.3131    0.8174   -9.9727 C   0  0  0  0  0  0  0  0  0  0  0  0
  1  2  3  0
  2  3  1  0
  3  4  2  0
  4  5  1  0
  5  6  2  0
  6  7  1  0
  8  7  1  6
  8  9  1  0
  9 10  1  1
  9 11  1  0
 11 12  1  6
 12 13  1  1
 13 14  2  0
 14 15  1  0
 15 16  2  0
 16 17  1  0
 17 18  1  0
 17 19  2  0
  6 20  1  0
 20 21  2  0
 21  3  1  0
 12  7  1  0
 19 13  1  0
M  END
$$$$
