_rank17
     RDKit          3D

 20 21  0  0  0  0  0  0  0  0999 V2000
   20.2560   -1.7499   -7.6898 N   0  0  0  0  0  0  0  0  0  0  0  0
   20.8395   -1.5910   -8.6377 C   0  0  0  0  0  0  0  0  0  0  0  0
   21.5802   -1.3886   -9.8866 C   0  0  0  0  0  0  0  0  0  0  0  0
   20.8574   -1.4968  -11.0491 C   0  0  0  0  0  0  0  0  0  0  0  0
   21.4958   -1.3298  -12.2574 C   0  0  0  0  0  0  0  0  0  0  0  0
   20.8085   -1.4260  -13.4379 F   0  0  0  0  0  0  0  0  0  0  0  0
   22.8312   -1.0605  -12.2562 C   0  0  0  0  0  0  0  0  0  0  0  0
   23.6201   -0.9358  -11.1399 C   0  0  0  0  0  0  0  0  0  0  0  0
   24.9146   -0.6768  -11.1867 O   0  0  0  0  0  0  0  0  0  0  0  0
   25.9610   -0.5052  -10.3043 C   0  0  1  0  0  0  0  0  0  0  0  0
   25.5177   -0.4841   -8.8902 C   0  0  0  0  0  0  0  0  0  0  0  0
   25.4685   -1.4020   -8.0829 O   0  0  0  0  0  0  0  0  0  0  0  0
   25.0993    0.7953   -8.4534 O   0  0  0  0  0  0  0  0  0  0  0  0
   26.7614   -1.8332  -10.4049 C   0  0  0  0  0  0  0  0  0  0  0  0
   28.1777   -1.3965  -10.2099 C   0  0  0  0  0  0  0  0  0  0  0  0
   28.2251   -0.1849  -11.1300 C   0  0  0  0  0  0  0  0  0  0  0  0
   26.9443    0.5034  -10.7098 C   0  0  2  0  0  0  0  0  0  0  0  0
   27.2609    1.6239   -9.7932 C   0  0  0  0  0  0  0  0  0  0  0  0
   28.6927    1.8176   -9.5975 N   0  0  0  0  0  0  0  0  0  0  0  0
   22.9160   -1.1177   -9.9305 C   0  0  0  0  0  0  0  0  0  0  0  0
  1  2  3  0
  2  3  1  0
  3  4  2  0
  4  5  1  0
  5  6  1  0
  5  7  2  0
  7  8  1  0
  8  9  1  0
 10  9  1  6
 10 11  1  0
 11 12  2  0
 11 13  1  0
 14 10  1  6
 15 14  1  1
 16 15  1  6
 16 17  1  0
 17 18  1  1
 18 19  1  1
  8 20  2  0
 20  3  1  0
 17 10  1  0
M  END
$$$$
