_rank6
     RDKit          3D

 20 21  0  0  0  0  0  0  0  0999 V2000
   19.4953    2.4383  -10.1403 N   0  0  0  0  0  0  0  0  0  0  0  0
   20.1192    1.5036  -10.1769 C   0  0  0  0  0  0  0  0  0  0  0  0
   20.9209    0.2765  -10.2049 C   0  0  0  0  0  0  0  0  0  0  0  0
   20.2449   -0.8879  -10.4752 C   0  0  0  0  0  0  0  0  0  0  0  0
   20.9373   -2.0776  -10.5043 C   0  0  0  0  0  0  0  0  0  0  0  0
   20.2994   -3.2588  -10.7743 F   0  0  0  0  0  0  0  0  0  0  0  0
   22.2779   -2.0565  -10.2632 C   0  0  0  0  0  0  0  0  0  0  0  0
   23.0228   -0.9369   -9.9882 C   0  0  0  0  0  0  0  0  0  0  0  0
   24.3231   -0.9644   -9.7568 O   0  0  0  0  0  0  0  0  0  0  0  0
   25.4794   -0.4764  -10.3291 C   0  0  1  0  0  0  0  0  0  0  0  0
   26.0453   -1.3949  -11.3451 C   0  0  0  0  0  0  0  0  0  0  0  0
   26.4835   -2.5282  -11.2024 O   0  0  0  0  0  0  0  0  0  0  0  0
   26.0650   -0.8446  -12.6488 O   0  0  0  0  0  0  0  0  0  0  0  0
   24.9997    0.7356  -11.1749 C   0  0  0  0  0  0  0  0  0  0  0  0
   26.1389    1.6981  -11.0733 C   0  0  0  0  0  0  0  0  0  0  0  0
   26.4257    1.6341   -9.5798 C   0  0  0  0  0  0  0  0  0  0  0  0
   26.4198    0.1333   -9.3842 C   0  0  2  0  0  0  0  0  0  0  0  0
   27.8141   -0.3640   -9.3188 C   0  0  0  0  0  0  0  0  0  0  0  0
   28.2233   -0.7481   -7.9731 N   0  0  0  0  0  0  0  0  0  0  0  0
   22.2639    0.2527   -9.9692 C   0  0  0  0  0  0  0  0  0  0  0  0
  1  2  3  0
  2  3  1  0
  3  4  2  0
  4  5  1  0
  5  6  1  0
  5  7  2  0
  7  8  1  0
  8  9  1  0
 10  9  1  1
 10 11  1  0
 11 12  2  0
 11 13  1  0
 14 10  1  6
 15 14  1  1
 16 15  1  6
 16 17  1  0
 17 18  1  6
 18 19  1  1
  8 20  2  0
 20  3  1  0
 17 10  1  0
M  END
$$$$
