_rank4
     RDKit          3D

 20 21  0  0  0  0  0  0  0  0999 V2000
   18.3157    1.9398   -9.4463 N   0  0  0  0  0  0  0  0  0  0  0  0
   19.1137    1.1767   -9.6591 C   0  0  0  0  0  0  0  0  0  0  0  0
   20.1711    0.1989   -9.9335 C   0  0  0  0  0  0  0  0  0  0  0  0
   19.7728   -0.9887  -10.4962 C   0  0  0  0  0  0  0  0  0  0  0  0
   20.7152   -1.9549  -10.7680 C   0  0  0  0  0  0  0  0  0  0  0  0
   20.3579   -3.1502  -11.3326 F   0  0  0  0  0  0  0  0  0  0  0  0
   22.0184   -1.6957  -10.4676 C   0  0  0  0  0  0  0  0  0  0  0  0
   22.4940   -0.5364   -9.9075 C   0  0  0  0  0  0  0  0  0  0  0  0
   23.7687   -0.3297   -9.6295 O   0  0  0  0  0  0  0  0  0  0  0  0
   24.9878   -0.4195  -10.2689 C   0  0  1  0  0  0  0  0  0  0  0  0
   25.2408   -1.7681  -10.8289 C   0  0  0  0  0  0  0  0  0  0  0  0
   25.2510   -2.8509  -10.2594 O   0  0  0  0  0  0  0  0  0  0  0  0
   25.5053   -1.7570  -12.2191 O   0  0  0  0  0  0  0  0  0  0  0  0
   24.8156    0.4636  -11.5358 C   0  0  0  0  0  0  0  0  0  0  0  0
   26.1751    1.0538  -11.7307 C   0  0  0  0  0  0  0  0  0  0  0  0
   26.4987    1.4848  -10.3073 C   0  0  0  0  0  0  0  0  0  0  0  0
   26.0977    0.2287   -9.5642 C   0  0  2  0  0  0  0  0  0  0  0  0
   27.3082   -0.5576   -9.2295 C   0  0  0  0  0  0  0  0  0  0  0  0
   28.3733    0.2497   -8.6466 N   0  0  0  0  0  0  0  0  0  0  0  0
   21.4866    0.4175   -9.6486 C   0  0  0  0  0  0  0  0  0  0  0  0
  1  2  3  0
  2  3  1  0
  3  4  2  0
  4  5  1  0
  5  6  1  0
  5  7  2  0
  7  8  1  0
  8  9  1  0
 10  9  1  1
 10 11  1  0
 11 12  2  0
 11 13  1  0
 14 10  1  6
 15 14  1  1
 16 15  1  6
 16 17  1  0
 17 18  1  6
 18 19  1  1
  8 20  2  0
 20  3  1  0
 17 10  1  0
M  END
$$$$
