_rank1
     RDKit          3D

 20 21  0  0  0  0  0  0  0  0999 V2000
   19.1934    2.0005   -9.0273 N   0  0  0  0  0  0  0  0  0  0  0  0
   19.9231    1.2415   -9.4217 C   0  0  0  0  0  0  0  0  0  0  0  0
   20.8564    0.2409   -9.9481 C   0  0  0  0  0  0  0  0  0  0  0  0
   20.3523   -0.6334  -10.8794 C   0  0  0  0  0  0  0  0  0  0  0  0
   21.1737   -1.6055  -11.4048 C   0  0  0  0  0  0  0  0  0  0  0  0
   20.7090   -2.4928  -12.3385 F   0  0  0  0  0  0  0  0  0  0  0  0
   22.4665   -1.6649  -10.9794 C   0  0  0  0  0  0  0  0  0  0  0  0
   23.0431   -0.8287  -10.0561 C   0  0  0  0  0  0  0  0  0  0  0  0
   24.3027   -0.9259   -9.6702 O   0  0  0  0  0  0  0  0  0  0  0  0
   25.5570   -0.6601  -10.1790 C   0  0  1  0  0  0  0  0  0  0  0  0
   26.6059   -1.5292   -9.5951 C   0  0  0  0  0  0  0  0  0  0  0  0
   27.4138   -1.2770   -8.7117 O   0  0  0  0  0  0  0  0  0  0  0  0
   26.6456   -2.8222  -10.1691 O   0  0  0  0  0  0  0  0  0  0  0  0
   25.4765   -1.1435  -11.6535 C   0  0  0  0  0  0  0  0  0  0  0  0
   26.3553   -0.1771  -12.3805 C   0  0  0  0  0  0  0  0  0  0  0  0
   25.8769    1.1386  -11.7831 C   0  0  0  0  0  0  0  0  0  0  0  0
   25.8724    0.7648  -10.3165 C   0  0  2  0  0  0  0  0  0  0  0  0
   27.0845    1.3105   -9.6616 C   0  0  0  0  0  0  0  0  0  0  0  0
   26.8159    2.4936   -8.8530 N   0  0  0  0  0  0  0  0  0  0  0  0
   22.1572    0.1462   -9.5498 C   0  0  0  0  0  0  0  0  0  0  0  0
  1  2  3  0
  2  3  1  0
  3  4  2  0
  4  5  1  0
  5  6  1  0
  5  7  2  0
  7  8  1  0
  8  9  1  0
 10  9  1  1
 10 11  1  0
 11 12  2  0
 11 13  1  0
 14 10  1  6
 15 14  1  1
 16 15  1  6
 16 17  1  0
 17 18  1  6
 18 19  1  1
  8 20  2  0
 20  3  1  0
 17 10  1  0
M  END
$$$$
