_rank18
     RDKit          3D

 20 21  0  0  0  0  0  0  0  0999 V2000
   19.9125   -1.5970  -13.4480 N   0  0  0  0  0  0  0  0  0  0  0  0
   20.5989   -1.3799  -12.5843 C   0  0  0  0  0  0  0  0  0  0  0  0
   21.5008   -1.0761  -11.4691 C   0  0  0  0  0  0  0  0  0  0  0  0
   20.9299   -1.0159  -10.2217 C   0  0  0  0  0  0  0  0  0  0  0  0
   21.7198   -0.7229   -9.1327 C   0  0  0  0  0  0  0  0  0  0  0  0
   21.1882   -0.6580   -7.8724 F   0  0  0  0  0  0  0  0  0  0  0  0
   23.0490   -0.5025   -9.3333 C   0  0  0  0  0  0  0  0  0  0  0  0
   23.6923   -0.5461  -10.5450 C   0  0  0  0  0  0  0  0  0  0  0  0
   24.9856   -0.3216  -10.6930 O   0  0  0  0  0  0  0  0  0  0  0  0
   26.1314   -0.3694   -9.9264 C   0  0  1  0  0  0  0  0  0  0  0  0
   25.8441   -0.4500   -8.4747 C   0  0  0  0  0  0  0  0  0  0  0  0
   25.9119   -1.4159   -7.7269 O   0  0  0  0  0  0  0  0  0  0  0  0
   25.4356    0.7839   -7.9151 O   0  0  0  0  0  0  0  0  0  0  0  0
   26.7409   -1.7628  -10.2449 C   0  0  0  0  0  0  0  0  0  0  0  0
   28.2139   -1.5175  -10.1759 C   0  0  0  0  0  0  0  0  0  0  0  0
   28.3195   -0.2272  -10.9764 C   0  0  0  0  0  0  0  0  0  0  0  0
   27.1879    0.5558  -10.3465 C   0  0  2  0  0  0  0  0  0  0  0  0
   27.7385    1.5261   -9.3712 C   0  0  0  0  0  0  0  0  0  0  0  0
   27.4918    2.9144   -9.7420 N   0  0  0  0  0  0  0  0  0  0  0  0
   22.8363   -0.8486  -11.6255 C   0  0  0  0  0  0  0  0  0  0  0  0
  1  2  3  0
  2  3  1  0
  3  4  2  0
  4  5  1  0
  5  6  1  0
  5  7  2  0
  7  8  1  0
  8  9  1  0
 10  9  1  6
 10 11  1  0
 11 12  2  0
 11 13  1  0
 14 10  1  6
 15 14  1  1
 16 15  1  6
 16 17  1  0
 17 18  1  1
 18 19  1  1
  8 20  2  0
 20  3  1  0
 17 10  1  0
M  END
$$$$
