_rank2
     RDKit          3D

 20 21  0  0  0  0  0  0  0  0999 V2000
   19.1070    1.8718   -9.2053 N   0  0  0  0  0  0  0  0  0  0  0  0
   19.7119    1.0314   -9.6435 C   0  0  0  0  0  0  0  0  0  0  0  0
   20.5136   -0.0656  -10.1941 C   0  0  0  0  0  0  0  0  0  0  0  0
   19.8855   -1.2811  -10.3112 C   0  0  0  0  0  0  0  0  0  0  0  0
   20.5862   -2.3562  -10.8101 C   0  0  0  0  0  0  0  0  0  0  0  0
   19.9935   -3.5832  -10.9459 F   0  0  0  0  0  0  0  0  0  0  0  0
   21.8865   -2.1738  -11.1729 C   0  0  0  0  0  0  0  0  0  0  0  0
   22.5818   -0.9935  -11.0879 C   0  0  0  0  0  0  0  0  0  0  0  0
   23.8458   -0.8636  -11.4489 O   0  0  0  0  0  0  0  0  0  0  0  0
   24.9984   -0.2806  -10.9647 C   0  0  1  0  0  0  0  0  0  0  0  0
   25.0538   -0.2696   -9.4837 C   0  0  0  0  0  0  0  0  0  0  0  0
   24.4796    0.4689   -8.6952 O   0  0  0  0  0  0  0  0  0  0  0  0
   25.9024   -1.2672   -8.9474 O   0  0  0  0  0  0  0  0  0  0  0  0
   26.1206   -1.2823  -11.3539 C   0  0  0  0  0  0  0  0  0  0  0  0
   27.2904   -0.3955  -11.6357 C   0  0  0  0  0  0  0  0  0  0  0  0
   26.6295    0.6735  -12.4943 C   0  0  0  0  0  0  0  0  0  0  0  0
   25.3997    0.9481  -11.6559 C   0  0  2  0  0  0  0  0  0  0  0  0
   25.5985    2.1925  -10.8762 C   0  0  0  0  0  0  0  0  0  0  0  0
   25.2909    3.3993  -11.6342 N   0  0  0  0  0  0  0  0  0  0  0  0
   21.8173    0.0733  -10.5693 C   0  0  0  0  0  0  0  0  0  0  0  0
  1  2  3  0
  2  3  1  0
  3  4  2  0
  4  5  1  0
  5  6  1  0
  5  7  2  0
  7  8  1  0
  8  9  1  0
 10  9  1  1
 10 11  1  0
 11 12  2  0
 11 13  1  0
 14 10  1  6
 15 14  1  1
 16 15  1  6
 16 17  1  0
 17 18  1  1
 18 19  1  1
  8 20  2  0
 20  3  1  0
 17 10  1  0
M  END
$$$$
