_rank14
     RDKit          3D

 20 21  0  0  0  0  0  0  0  0999 V2000
   20.7778   -4.2759   -8.8038 N   0  0  0  0  0  0  0  0  0  0  0  0
   21.0615   -3.3925   -9.4389 C   0  0  0  0  0  0  0  0  0  0  0  0
   21.4515   -2.2525  -10.2741 C   0  0  0  0  0  0  0  0  0  0  0  0
   20.4280   -1.5191  -10.8220 C   0  0  0  0  0  0  0  0  0  0  0  0
   20.7263   -0.4424  -11.6265 C   0  0  0  0  0  0  0  0  0  0  0  0
   19.7336    0.3157  -12.1877 F   0  0  0  0  0  0  0  0  0  0  0  0
   22.0357   -0.1406  -11.8509 C   0  0  0  0  0  0  0  0  0  0  0  0
   23.1117   -0.8222  -11.3396 C   0  0  0  0  0  0  0  0  0  0  0  0
   24.3673   -0.4951  -11.5874 O   0  0  0  0  0  0  0  0  0  0  0  0
   25.4444    0.0357  -10.9085 C   0  0  1  0  0  0  0  0  0  0  0  0
   25.4311   -0.3000   -9.4650 C   0  0  0  0  0  0  0  0  0  0  0  0
   24.7444    0.1717   -8.5691 O   0  0  0  0  0  0  0  0  0  0  0  0
   26.3585   -1.3105   -9.1163 O   0  0  0  0  0  0  0  0  0  0  0  0
   26.6622   -0.7649  -11.4473 C   0  0  0  0  0  0  0  0  0  0  0  0
   27.7664    0.2428  -11.4402 C   0  0  0  0  0  0  0  0  0  0  0  0
   27.0591    1.4358  -12.0675 C   0  0  0  0  0  0  0  0  0  0  0  0
   25.7739    1.4179  -11.2684 C   0  0  2  0  0  0  0  0  0  0  0  0
   25.8333    2.4533  -10.2099 C   0  0  0  0  0  0  0  0  0  0  0  0
   25.7700    3.8126  -10.7335 N   0  0  0  0  0  0  0  0  0  0  0  0
   22.7490   -1.9158  -10.5246 C   0  0  0  0  0  0  0  0  0  0  0  0
  1  2  3  0
  2  3  1  0
  3  4  2  0
  4  5  1  0
  5  6  1  0
  5  7  2  0
  7  8  1  0
  8  9  1  0
 10  9  1  6
 10 11  1  0
 11 12  2  0
 11 13  1  0
 14 10  1  6
 15 14  1  1
 16 15  1  6
 16 17  1  0
 17 18  1  1
 18 19  1  1
  8 20  2  0
 20  3  1  0
 17 10  1  0
M  END
$$$$
