_rank20
     RDKit          3D

 17 18  0  0  0  0  0  0  0  0999 V2000
   27.5472    0.6753   -6.7712 N   0  0  0  0  0  0  0  0  0  0  0  0
   27.2170    0.2986   -7.9523 C   0  0  0  0  0  0  0  0  0  0  0  0
   26.8249   -0.1332   -9.2705 C   0  0  0  0  0  0  0  0  0  0  0  0
   27.5511   -0.7522  -10.2007 C   0  0  0  0  0  0  0  0  0  0  0  0
   26.9905   -1.2710  -11.3183 C   0  0  0  0  0  0  0  0  0  0  0  0
   27.7984   -2.0152  -12.1900 F   0  0  0  0  0  0  0  0  0  0  0  0
   25.6266   -1.1889  -11.5917 C   0  0  0  0  0  0  0  0  0  0  0  0
   24.8732   -0.5071  -10.5694 C   0  0  0  0  0  0  0  0  0  0  0  0
   23.5149   -0.4819  -10.9738 O   0  0  0  0  0  0  0  0  0  0  0  0
   22.4383   -0.8225  -10.1706 C   0  0  0  0  0  0  0  0  0  0  0  0
   21.1484   -1.2119  -10.8211 C   0  0  2  0  0  0  0  0  0  0  0  0
   20.0220   -1.4676   -9.8530 C   0  0  0  0  0  0  0  0  0  0  0  0
   20.5162   -1.8926   -8.5559 N   0  0  0  0  0  0  0  0  0  0  0  0
   21.4670   -2.3659  -11.7964 C   0  0  0  0  0  0  0  0  0  0  0  0
   20.3451   -1.8174  -12.6723 C   0  0  0  0  0  0  0  0  0  0  0  0
   20.6984   -0.4539  -12.0288 C   0  0  0  0  0  0  0  0  0  0  0  0
   25.4064   -0.0161   -9.4868 C   0  0  0  0  0  0  0  0  0  0  0  0
  1  2  3  0
  2  3  1  0
  3  4  2  0
  4  5  1  0
  5  6  1  0
  5  7  2  0
  7  8  1  0
  8  9  1  0
 10  9  1  6
 11 10  1  1
 11 12  1  0
 12 13  1  6
 14 11  1  6
 15 14  1  6
 16 15  1  6
  8 17  2  0
 17  3  1  0
 16 11  1  0
M  END
$$$$
