_rank13
     RDKit          3D

 17 18  0  0  0  0  0  0  0  0999 V2000
   28.4251    0.2516   -7.2518 N   0  0  0  0  0  0  0  0  0  0  0  0
   27.7322    0.2198   -8.3311 C   0  0  0  0  0  0  0  0  0  0  0  0
   26.9335    0.1887   -9.5307 C   0  0  0  0  0  0  0  0  0  0  0  0
   27.3095    0.3867  -10.7937 C   0  0  0  0  0  0  0  0  0  0  0  0
   26.4829    0.1312  -11.8348 C   0  0  0  0  0  0  0  0  0  0  0  0
   26.9901    0.2455  -13.1372 F   0  0  0  0  0  0  0  0  0  0  0  0
   25.1816   -0.3404  -11.6730 C   0  0  0  0  0  0  0  0  0  0  0  0
   24.8059   -0.5357  -10.2952 C   0  0  0  0  0  0  0  0  0  0  0  0
   23.4671   -1.0006  -10.2711 O   0  0  0  0  0  0  0  0  0  0  0  0
   22.6167   -1.0366  -11.3647 C   0  0  0  0  0  0  0  0  0  0  0  0
   21.1394   -0.9988  -11.1306 C   0  0  2  0  0  0  0  0  0  0  0  0
   20.7417   -0.4433   -9.7873 C   0  0  0  0  0  0  0  0  0  0  0  0
   20.8727   -1.4364   -8.7365 N   0  0  0  0  0  0  0  0  0  0  0  0
   20.5958   -2.4062  -11.4598 C   0  0  0  0  0  0  0  0  0  0  0  0
   19.3199   -1.7088  -11.9209 C   0  0  0  0  0  0  0  0  0  0  0  0
   20.2525   -0.5122  -12.2317 C   0  0  0  0  0  0  0  0  0  0  0  0
   25.6016   -0.3021   -9.2904 C   0  0  0  0  0  0  0  0  0  0  0  0
  1  2  3  0
  2  3  1  0
  3  4  2  0
  4  5  1  0
  5  6  1  0
  5  7  2  0
  7  8  1  0
  8  9  1  0
 10  9  1  6
 11 10  1  6
 11 12  1  0
 12 13  1  6
 14 11  1  6
 15 14  1  6
 16 15  1  6
  8 17  2  0
 17  3  1  0
 16 11  1  0
M  END
$$$$
