_rank9
     RDKit          3D

 17 18  0  0  0  0  0  0  0  0999 V2000
   28.2201    0.7566   -6.7735 N   0  0  0  0  0  0  0  0  0  0  0  0
   27.6166    0.4407   -7.8607 C   0  0  0  0  0  0  0  0  0  0  0  0
   26.9183    0.0964   -9.0738 C   0  0  0  0  0  0  0  0  0  0  0  0
   27.4155   -0.3163  -10.2392 C   0  0  0  0  0  0  0  0  0  0  0  0
   26.6219   -0.7904  -11.2281 C   0  0  0  0  0  0  0  0  0  0  0  0
   27.2266   -1.3212  -12.3766 F   0  0  0  0  0  0  0  0  0  0  0  0
   25.2353   -0.8714  -11.1157 C   0  0  0  0  0  0  0  0  0  0  0  0
   24.7314   -0.4100   -9.8465 C   0  0  0  0  0  0  0  0  0  0  0  0
   23.3195   -0.5327   -9.8684 O   0  0  0  0  0  0  0  0  0  0  0  0
   22.5756   -0.9796  -10.9488 C   0  0  0  0  0  0  0  0  0  0  0  0
   21.0899   -1.0856  -10.8065 C   0  0  2  0  0  0  0  0  0  0  0  0
   20.5462   -0.4747   -9.5406 C   0  0  0  0  0  0  0  0  0  0  0  0
   19.2163    0.0729   -9.7380 N   0  0  0  0  0  0  0  0  0  0  0  0
   20.7195   -2.5652  -11.0477 C   0  0  0  0  0  0  0  0  0  0  0  0
   19.4121   -2.0494  -11.6404 C   0  0  0  0  0  0  0  0  0  0  0  0
   20.2339   -0.7856  -11.9952 C   0  0  0  0  0  0  0  0  0  0  0  0
   25.4920    0.0365   -8.8876 C   0  0  0  0  0  0  0  0  0  0  0  0
  1  2  3  0
  2  3  1  0
  3  4  2  0
  4  5  1  0
  5  6  1  0
  5  7  2  0
  7  8  1  0
  8  9  1  0
 10  9  1  6
 11 10  1  6
 11 12  1  0
 12 13  1  6
 14 11  1  6
 15 14  1  6
 16 15  1  6
  8 17  2  0
 17  3  1  0
 16 11  1  0
M  END
$$$$
