_rank15
     RDKit          3D

 17 18  0  0  0  0  0  0  0  0999 V2000
   28.3851    0.4841   -6.9291 N   0  0  0  0  0  0  0  0  0  0  0  0
   27.7255    0.3290   -8.0186 C   0  0  0  0  0  0  0  0  0  0  0  0
   27.0001    0.1370   -9.2493 C   0  0  0  0  0  0  0  0  0  0  0  0
   27.4724   -0.0925  -10.4740 C   0  0  0  0  0  0  0  0  0  0  0  0
   26.6621   -0.4473  -11.4987 C   0  0  0  0  0  0  0  0  0  0  0  0
   27.2456   -0.7927  -12.7261 F   0  0  0  0  0  0  0  0  0  0  0  0
   25.2822   -0.5860  -11.3623 C   0  0  0  0  0  0  0  0  0  0  0  0
   24.8050   -0.3231  -10.0278 C   0  0  0  0  0  0  0  0  0  0  0  0
   23.3969   -0.4851  -10.0296 O   0  0  0  0  0  0  0  0  0  0  0  0
   22.6758   -1.1756  -10.9906 C   0  0  0  0  0  0  0  0  0  0  0  0
   21.1997   -1.3367  -10.8068 C   0  0  2  0  0  0  0  0  0  0  0  0
   20.7421   -1.2386   -9.3742 C   0  0  0  0  0  0  0  0  0  0  0  0
   21.8633   -1.1089   -8.4611 N   0  0  0  0  0  0  0  0  0  0  0  0
   20.7917   -2.6259  -11.5523 C   0  0  0  0  0  0  0  0  0  0  0  0
   19.4600   -1.9369  -11.8325 C   0  0  0  0  0  0  0  0  0  0  0  0
   20.2796   -0.6258  -11.7469 C   0  0  0  0  0  0  0  0  0  0  0  0
   25.5822    0.0076   -9.0358 C   0  0  0  0  0  0  0  0  0  0  0  0
  1  2  3  0
  2  3  1  0
  3  4  2  0
  4  5  1  0
  5  6  1  0
  5  7  2  0
  7  8  1  0
  8  9  1  0
 10  9  1  6
 11 10  1  1
 11 12  1  0
 12 13  1  6
 14 11  1  6
 15 14  1  6
 16 15  1  6
  8 17  2  0
 17  3  1  0
 16 11  1  0
M  END
$$$$
