_rank7
     RDKit          3D

 17 18  0  0  0  0  0  0  0  0999 V2000
   28.0818    0.4270   -6.8587 N   0  0  0  0  0  0  0  0  0  0  0  0
   27.5156    0.2888   -8.0017 C   0  0  0  0  0  0  0  0  0  0  0  0
   26.8576    0.1360   -9.2751 C   0  0  0  0  0  0  0  0  0  0  0  0
   27.3928   -0.0988  -10.4726 C   0  0  0  0  0  0  0  0  0  0  0  0
   26.6321   -0.4132  -11.5472 C   0  0  0  0  0  0  0  0  0  0  0  0
   27.2742   -0.7679  -12.7424 F   0  0  0  0  0  0  0  0  0  0  0  0
   25.2425   -0.5021  -11.4937 C   0  0  0  0  0  0  0  0  0  0  0  0
   24.6971   -0.2348  -10.1866 C   0  0  0  0  0  0  0  0  0  0  0  0
   23.2866   -0.3445  -10.2729 O   0  0  0  0  0  0  0  0  0  0  0  0
   22.5997   -1.4721  -10.6934 C   0  0  0  0  0  0  0  0  0  0  0  0
   21.1143   -1.3930  -10.8547 C   0  0  2  0  0  0  0  0  0  0  0  0
   20.6669   -0.7178  -12.1256 C   0  0  0  0  0  0  0  0  0  0  0  0
   21.2407    0.6091  -12.2582 N   0  0  0  0  0  0  0  0  0  0  0  0
   20.5510   -0.7965   -9.5465 C   0  0  0  0  0  0  0  0  0  0  0  0
   19.3172   -1.6603   -9.7879 C   0  0  0  0  0  0  0  0  0  0  0  0
   20.2942   -2.6016  -10.5346 C   0  0  0  0  0  0  0  0  0  0  0  0
   25.4258    0.0571   -9.1467 C   0  0  0  0  0  0  0  0  0  0  0  0
  1  2  3  0
  2  3  1  0
  3  4  2  0
  4  5  1  0
  5  6  1  0
  5  7  2  0
  7  8  1  0
  8  9  1  0
 10  9  1  6
 11 10  1  1
 11 12  1  0
 12 13  1  6
 14 11  1  6
 15 14  1  6
 16 15  1  6
  8 17  2  0
 17  3  1  0
 16 11  1  0
M  END
$$$$
