_rank6
     RDKit          3D

 17 18  0  0  0  0  0  0  0  0999 V2000
   28.0911    0.1253   -6.9606 N   0  0  0  0  0  0  0  0  0  0  0  0
   27.4495    0.0591   -8.0697 C   0  0  0  0  0  0  0  0  0  0  0  0
   26.7424   -0.0344   -9.3223 C   0  0  0  0  0  0  0  0  0  0  0  0
   27.2211   -0.2977  -10.5378 C   0  0  0  0  0  0  0  0  0  0  0  0
   26.4060   -0.5466  -11.5894 C   0  0  0  0  0  0  0  0  0  0  0  0
   26.9824   -0.9373  -12.8066 F   0  0  0  0  0  0  0  0  0  0  0  0
   25.0159   -0.5338  -11.4921 C   0  0  0  0  0  0  0  0  0  0  0  0
   24.5330   -0.2384  -10.1666 C   0  0  0  0  0  0  0  0  0  0  0  0
   23.1162   -0.2437  -10.2085 O   0  0  0  0  0  0  0  0  0  0  0  0
   22.3265   -1.3785  -10.3030 C   0  0  0  0  0  0  0  0  0  0  0  0
   20.8799   -1.2230  -10.6521 C   0  0  2  0  0  0  0  0  0  0  0  0
   20.5907   -1.2955  -12.1295 C   0  0  0  0  0  0  0  0  0  0  0  0
   19.8024   -2.4676  -12.4644 N   0  0  0  0  0  0  0  0  0  0  0  0
   20.3781    0.0486   -9.9340 C   0  0  0  0  0  0  0  0  0  0  0  0
   19.0289   -0.6542   -9.8219 C   0  0  0  0  0  0  0  0  0  0  0  0
   19.8640   -1.9582   -9.8377 C   0  0  0  0  0  0  0  0  0  0  0  0
   25.3135   -0.0093   -9.1488 C   0  0  0  0  0  0  0  0  0  0  0  0
  1  2  3  0
  2  3  1  0
  3  4  2  0
  4  5  1  0
  5  6  1  0
  5  7  2  0
  7  8  1  0
  8  9  1  0
 10  9  1  6
 11 10  1  6
 11 12  1  0
 12 13  1  6
 14 11  1  6
 15 14  1  6
 16 15  1  6
  8 17  2  0
 17  3  1  0
 16 11  1  0
M  END
$$$$
