_rank12
     RDKit          3D

 17 18  0  0  0  0  0  0  0  0999 V2000
   27.8824    0.5055   -6.7713 N   0  0  0  0  0  0  0  0  0  0  0  0
   27.3505    0.3224   -7.9244 C   0  0  0  0  0  0  0  0  0  0  0  0
   26.7653    0.0957   -9.2221 C   0  0  0  0  0  0  0  0  0  0  0  0
   27.3538   -0.3031  -10.3492 C   0  0  0  0  0  0  0  0  0  0  0  0
   26.6392   -0.6613  -11.4416 C   0  0  0  0  0  0  0  0  0  0  0  0
   27.3230   -1.1876  -12.5470 F   0  0  0  0  0  0  0  0  0  0  0  0
   25.2466   -0.6290  -11.4819 C   0  0  0  0  0  0  0  0  0  0  0  0
   24.6439   -0.1860  -10.2498 C   0  0  0  0  0  0  0  0  0  0  0  0
   23.2378   -0.1869  -10.4284 O   0  0  0  0  0  0  0  0  0  0  0  0
   22.4845   -1.2847  -10.8125 C   0  0  0  0  0  0  0  0  0  0  0  0
   21.0146   -1.1097  -11.0306 C   0  0  2  0  0  0  0  0  0  0  0  0
   20.6588   -0.4587  -12.3424 C   0  0  0  0  0  0  0  0  0  0  0  0
   19.9982   -1.3885  -13.2404 N   0  0  0  0  0  0  0  0  0  0  0  0
   20.4515   -0.4217   -9.7681 C   0  0  0  0  0  0  0  0  0  0  0  0
   19.1684   -1.2073  -10.0200 C   0  0  0  0  0  0  0  0  0  0  0  0
   20.1009   -2.2443  -10.6933 C   0  0  0  0  0  0  0  0  0  0  0  0
   25.3270    0.1489   -9.1921 C   0  0  0  0  0  0  0  0  0  0  0  0
  1  2  3  0
  2  3  1  0
  3  4  2  0
  4  5  1  0
  5  6  1  0
  5  7  2  0
  7  8  1  0
  8  9  1  0
 10  9  1  6
 11 10  1  1
 11 12  1  0
 12 13  1  6
 14 11  1  6
 15 14  1  6
 16 15  1  6
  8 17  2  0
 17  3  1  0
 16 11  1  0
M  END
$$$$
