_rank14
     RDKit          3D

 17 18  0  0  0  0  0  0  0  0999 V2000
   28.3760   -0.0450   -7.2399 N   0  0  0  0  0  0  0  0  0  0  0  0
   27.6512   -0.0212   -8.2983 C   0  0  0  0  0  0  0  0  0  0  0  0
   26.8562    0.0137   -9.5001 C   0  0  0  0  0  0  0  0  0  0  0  0
   27.2576    0.0574  -10.7700 C   0  0  0  0  0  0  0  0  0  0  0  0
   26.3950   -0.1124  -11.7994 C   0  0  0  0  0  0  0  0  0  0  0  0
   26.9102   -0.1772  -13.1020 F   0  0  0  0  0  0  0  0  0  0  0  0
   25.0305   -0.3297  -11.6184 C   0  0  0  0  0  0  0  0  0  0  0  0
   24.6302   -0.3633  -10.2342 C   0  0  0  0  0  0  0  0  0  0  0  0
   23.2295   -0.5764  -10.1914 O   0  0  0  0  0  0  0  0  0  0  0  0
   22.4194   -0.7713  -11.2987 C   0  0  0  0  0  0  0  0  0  0  0  0
   20.9646   -1.0496  -11.0874 C   0  0  2  0  0  0  0  0  0  0  0  0
   20.1478   -1.0574  -12.3540 C   0  0  0  0  0  0  0  0  0  0  0  0
   20.9710   -1.3179  -13.5210 N   0  0  0  0  0  0  0  0  0  0  0  0
   20.4779   -0.0855   -9.9838 C   0  0  0  0  0  0  0  0  0  0  0  0
   19.5095   -1.1890   -9.5700 C   0  0  0  0  0  0  0  0  0  0  0  0
   20.5746   -2.1500  -10.1533 C   0  0  0  0  0  0  0  0  0  0  0  0
   25.4583   -0.2118   -9.2398 C   0  0  0  0  0  0  0  0  0  0  0  0
  1  2  3  0
  2  3  1  0
  3  4  2  0
  4  5  1  0
  5  6  1  0
  5  7  2  0
  7  8  1  0
  8  9  1  0
 10  9  1  6
 11 10  1  6
 11 12  1  0
 12 13  1  6
 14 11  1  6
 15 14  1  6
 16 15  1  6
  8 17  2  0
 17  3  1  0
 16 11  1  0
M  END
$$$$
