_rank8
     RDKit          3D

 17 18  0  0  0  0  0  0  0  0999 V2000
   27.4197   -0.4502   -7.3052 N   0  0  0  0  0  0  0  0  0  0  0  0
   27.0294   -0.2968   -8.5177 C   0  0  0  0  0  0  0  0  0  0  0  0
   26.6115   -0.1350   -9.8877 C   0  0  0  0  0  0  0  0  0  0  0  0
   27.3591   -0.0389  -10.9866 C   0  0  0  0  0  0  0  0  0  0  0  0
   26.8183   -0.0872  -12.2266 C   0  0  0  0  0  0  0  0  0  0  0  0
   27.6793   -0.1046  -13.3333 F   0  0  0  0  0  0  0  0  0  0  0  0
   25.4502   -0.2252  -12.4532 C   0  0  0  0  0  0  0  0  0  0  0  0
   24.6716   -0.3185  -11.2438 C   0  0  0  0  0  0  0  0  0  0  0  0
   23.3084   -0.4412  -11.6125 O   0  0  0  0  0  0  0  0  0  0  0  0
   22.2444    0.1246  -10.9285 C   0  0  0  0  0  0  0  0  0  0  0  0
   21.0358   -0.7139  -10.6546 C   0  0  2  0  0  0  0  0  0  0  0  0
   21.3274   -2.1845  -10.5004 C   0  0  0  0  0  0  0  0  0  0  0  0
   21.6046   -2.5339   -9.1189 N   0  0  0  0  0  0  0  0  0  0  0  0
   19.9837   -0.3493  -11.7244 C   0  0  0  0  0  0  0  0  0  0  0  0
   18.9304   -0.6337  -10.6583 C   0  0  0  0  0  0  0  0  0  0  0  0
   20.0370   -0.2250   -9.6551 C   0  0  0  0  0  0  0  0  0  0  0  0
   25.1886   -0.2839  -10.0485 C   0  0  0  0  0  0  0  0  0  0  0  0
  1  2  3  0
  2  3  1  0
  3  4  2  0
  4  5  1  0
  5  6  1  0
  5  7  2  0
  7  8  1  0
  8  9  1  0
 10  9  1  6
 11 10  1  6
 11 12  1  0
 12 13  1  6
 14 11  1  6
 15 14  1  6
 16 15  1  6
  8 17  2  0
 17  3  1  0
 16 11  1  0
M  END
$$$$
