_rank16
     RDKit          3D

 17 18  0  0  0  0  0  0  0  0999 V2000
   28.3706    2.6313   -8.0535 N   0  0  0  0  0  0  0  0  0  0  0  0
   27.8868    1.5017   -8.4223 C   0  0  0  0  0  0  0  0  0  0  0  0
   27.3483    0.2235   -8.8146 C   0  0  0  0  0  0  0  0  0  0  0  0
   27.7534   -0.9984   -8.4702 C   0  0  0  0  0  0  0  0  0  0  0  0
   27.0260   -2.1022   -8.7620 C   0  0  0  0  0  0  0  0  0  0  0  0
   27.4542   -3.3393   -8.2595 F   0  0  0  0  0  0  0  0  0  0  0  0
   25.8157   -2.0535   -9.4509 C   0  0  0  0  0  0  0  0  0  0  0  0
   25.4120   -0.7184   -9.8143 C   0  0  0  0  0  0  0  0  0  0  0  0
   24.1830   -0.8110  -10.5145 O   0  0  0  0  0  0  0  0  0  0  0  0
   22.9688   -1.1654   -9.9487 C   0  0  0  0  0  0  0  0  0  0  0  0
   21.7296   -1.0683  -10.7816 C   0  0  2  0  0  0  0  0  0  0  0  0
   20.9116    0.1719  -10.5282 C   0  0  0  0  0  0  0  0  0  0  0  0
   21.1418    0.7029   -9.1968 N   0  0  0  0  0  0  0  0  0  0  0  0
   20.9779   -2.4082  -10.6274 C   0  0  0  0  0  0  0  0  0  0  0  0
   20.5033   -2.2057  -12.0629 C   0  0  0  0  0  0  0  0  0  0  0  0
   21.8168   -1.4038  -12.2361 C   0  0  0  0  0  0  0  0  0  0  0  0
   26.1028    0.3479   -9.5259 C   0  0  0  0  0  0  0  0  0  0  0  0
  1  2  3  0
  2  3  1  0
  3  4  2  0
  4  5  1  0
  5  6  1  0
  5  7  2  0
  7  8  1  0
  8  9  1  0
 10  9  1  6
 11 10  1  1
 11 12  1  0
 12 13  1  6
 14 11  1  6
 15 14  1  6
 16 15  1  6
  8 17  2  0
 17  3  1  0
 16 11  1  0
M  END
$$$$
