_rank19
     RDKit          3D

 17 18  0  0  0  0  0  0  0  0999 V2000
   28.9307   -0.7874  -12.1232 N   0  0  0  0  0  0  0  0  0  0  0  0
   27.8743   -0.7549  -11.3959 C   0  0  0  0  0  0  0  0  0  0  0  0
   26.6965   -0.7366  -10.5651 C   0  0  0  0  0  0  0  0  0  0  0  0
   26.6046   -0.5916   -9.2436 C   0  0  0  0  0  0  0  0  0  0  0  0
   25.4158   -0.3981   -8.6259 C   0  0  0  0  0  0  0  0  0  0  0  0
   25.4113   -0.1301   -7.2494 F   0  0  0  0  0  0  0  0  0  0  0  0
   24.2033   -0.3495   -9.3110 C   0  0  0  0  0  0  0  0  0  0  0  0
   24.3388   -0.5174  -10.7362 C   0  0  0  0  0  0  0  0  0  0  0  0
   23.0421   -0.4611  -11.3060 O   0  0  0  0  0  0  0  0  0  0  0  0
   21.8663   -0.2856  -10.5942 C   0  0  0  0  0  0  0  0  0  0  0  0
   20.7040   -1.1801  -10.8902 C   0  0  2  0  0  0  0  0  0  0  0  0
   19.8632   -1.5180   -9.6860 C   0  0  0  0  0  0  0  0  0  0  0  0
   19.0566   -0.3881   -9.2615 N   0  0  0  0  0  0  0  0  0  0  0  0
   21.2550   -2.3866  -11.6809 C   0  0  0  0  0  0  0  0  0  0  0  0
   19.9100   -2.4170  -12.3998 C   0  0  0  0  0  0  0  0  0  0  0  0
   19.8739   -0.8979  -12.1015 C   0  0  0  0  0  0  0  0  0  0  0  0
   25.4817   -0.6926  -11.3365 C   0  0  0  0  0  0  0  0  0  0  0  0
  1  2  3  0
  2  3  1  0
  3  4  2  0
  4  5  1  0
  5  6  1  0
  5  7  2  0
  7  8  1  0
  8  9  1  0
 10  9  1  6
 11 10  1  1
 11 12  1  0
 12 13  1  6
 14 11  1  6
 15 14  1  6
 16 15  1  6
  8 17  2  0
 17  3  1  0
 16 11  1  0
M  END
$$$$
