_rank10
     RDKit          3D

 28 30  0  0  0  0  0  0  0  0999 V2000
   18.4599    2.1140   -8.7493 N   0  0  0  0  0  0  0  0  0  0  0  0
   18.8954    1.2153   -9.3337 C   0  0  0  0  0  0  0  0  0  0  0  0
   19.4584    0.1109  -10.0567 C   0  0  0  0  0  0  0  0  0  0  0  0
   18.7441   -1.0663  -10.1409 C   0  0  0  0  0  0  0  0  0  0  0  0
   19.3073   -2.1115  -10.8410 C   0  0  0  0  0  0  0  0  0  0  0  0
   18.6490   -3.2974  -10.9579 F   0  0  0  0  0  0  0  0  0  0  0  0
   20.5458   -2.0271  -11.4551 C   0  0  0  0  0  0  0  0  0  0  0  0
   21.2522   -0.8485  -11.3662 C   0  0  0  0  0  0  0  0  0  0  0  0
   22.4959   -0.7330  -11.9709 O   0  0  0  0  0  0  0  0  0  0  0  0
   23.5881   -0.5167  -11.1091 C   0  0  0  0  0  0  0  0  0  0  0  0
   23.5680   -0.8520   -9.7826 C   0  0  0  0  0  0  0  0  0  0  0  0
   24.6262   -0.6437   -8.9453 C   0  0  0  0  0  0  0  0  0  0  0  0
   25.7843   -0.0566   -9.4851 C   0  0  0  0  0  0  0  0  0  0  0  0
   27.1148    0.1195   -8.3746 S   0  0  1  0  0  6  0  0  0  0  0  0
   27.9281    1.3451   -8.7317 O   0  0  0  0  0  0  0  0  0  0  0  0
   26.5879    0.3851   -6.9858 O   0  0  0  0  0  0  0  0  0  0  0  0
   28.2009   -1.2501   -8.2935 C   0  0  1  0  0  0  0  0  0  0  0  0
   27.6804   -2.4152   -7.8514 F   0  0  0  0  0  0  0  0  0  0  0  0
   28.7306   -1.5102   -9.5688 F   0  0  0  0  0  0  0  0  0  0  0  0
   25.8607    0.3042  -10.8187 C   0  0  0  0  0  0  0  0  0  0  0  0
   24.7598    0.0671  -11.6093 C   0  0  0  0  0  0  0  0  0  0  0  0
   25.0520    0.5303  -12.9833 C   0  0  0  0  0  0  0  0  0  0  0  0
   26.5583    0.4966  -13.0359 C   0  0  1  0  0  0  0  0  0  0  0  0
   26.9429   -0.8193  -13.1632 F   0  0  0  0  0  0  0  0  0  0  0  0
   27.0925    1.3120  -13.9890 F   0  0  0  0  0  0  0  0  0  0  0  0
   26.9250    0.9697  -11.6172 C   0  0  1  0  0  0  0  0  0  0  0  0
   26.8383    2.3566  -11.5357 O   0  0  0  0  0  0  0  0  0  0  0  0
   20.6928    0.2108  -10.6626 C   0  0  0  0  0  0  0  0  0  0  0  0
  1  2  3  0
  2  3  1  0
  3  4  2  0
  4  5  1  0
  5  6  1  0
  5  7  2  0
  7  8  1  0
  8  9  1  0
  9 10  1  0
 10 11  2  0
 11 12  1  0
 12 13  2  0
 14 13  1  6
 14 15  2  0
 14 16  2  0
 14 17  1  0
 17 18  1  6
 17 19  1  0
 13 20  1  0
 20 21  2  0
 22 21  1  6
 22 23  1  0
 23 24  1  6
 23 25  1  0
 23 26  1  0
 26 27  1  6
  8 28  2  0
 28  3  1  0
 21 10  1  0
 26 20  1  0
M  END
$$$$
