_rank20
     RDKit          3D

 28 30  0  0  0  0  0  0  0  0999 V2000
   16.7880    0.7059  -12.2512 N   0  0  0  0  0  0  0  0  0  0  0  0
   17.7652    0.2906  -11.7912 C   0  0  0  0  0  0  0  0  0  0  0  0
   18.9742   -0.2091  -11.2012 C   0  0  0  0  0  0  0  0  0  0  0  0
   18.9088   -0.8393   -9.9758 C   0  0  0  0  0  0  0  0  0  0  0  0
   20.0843   -1.3099   -9.4312 C   0  0  0  0  0  0  0  0  0  0  0  0
   20.0816   -1.9403   -8.2245 F   0  0  0  0  0  0  0  0  0  0  0  0
   21.3121   -1.1767  -10.0579 C   0  0  0  0  0  0  0  0  0  0  0  0
   21.3685   -0.5464  -11.2809 C   0  0  0  0  0  0  0  0  0  0  0  0
   22.5840   -0.3974  -11.9338 O   0  0  0  0  0  0  0  0  0  0  0  0
   23.7217   -0.2889  -11.1115 C   0  0  0  0  0  0  0  0  0  0  0  0
   23.7362   -0.6898   -9.8032 C   0  0  0  0  0  0  0  0  0  0  0  0
   24.8386   -0.5862   -9.0044 C   0  0  0  0  0  0  0  0  0  0  0  0
   26.0066   -0.0403   -9.5656 C   0  0  0  0  0  0  0  0  0  0  0  0
   27.3898    0.0016   -8.5076 S   0  0  1  0  0  6  0  0  0  0  0  0
   28.1973    1.2565   -8.7610 O   0  0  0  0  0  0  0  0  0  0  0  0
   26.9320    0.1084   -7.0738 O   0  0  0  0  0  0  0  0  0  0  0  0
   28.4651   -1.3729   -8.6360 C   0  0  1  0  0  0  0  0  0  0  0  0
   28.0486   -2.5272   -8.0720 F   0  0  0  0  0  0  0  0  0  0  0  0
   28.7092   -1.6580   -9.9902 F   0  0  0  0  0  0  0  0  0  0  0  0
   26.0495    0.3831  -10.8822 C   0  0  0  0  0  0  0  0  0  0  0  0
   24.9048    0.2508  -11.6340 C   0  0  0  0  0  0  0  0  0  0  0  0
   25.1674    0.7659  -12.9954 C   0  0  0  0  0  0  0  0  0  0  0  0
   26.6655    0.6478  -13.1160 C   0  0  1  0  0  0  0  0  0  0  0  0
   26.9649   -0.6799  -13.3239 F   0  0  0  0  0  0  0  0  0  0  0  0
   27.2080    1.4785  -14.0511 F   0  0  0  0  0  0  0  0  0  0  0  0
   27.1180    1.0259  -11.6936 C   0  0  1  0  0  0  0  0  0  0  0  0
   27.1181    2.4095  -11.5411 O   0  0  0  0  0  0  0  0  0  0  0  0
   20.1889   -0.0685  -11.8379 C   0  0  0  0  0  0  0  0  0  0  0  0
  1  2  3  0
  2  3  1  0
  3  4  2  0
  4  5  1  0
  5  6  1  0
  5  7  2  0
  7  8  1  0
  8  9  1  0
  9 10  1  0
 10 11  2  0
 11 12  1  0
 12 13  2  0
 14 13  1  6
 14 15  2  0
 14 16  2  0
 14 17  1  0
 17 18  1  6
 17 19  1  0
 13 20  1  0
 20 21  2  0
 22 21  1  6
 22 23  1  0
 23 24  1  6
 23 25  1  0
 23 26  1  0
 26 27  1  6
  8 28  2  0
 28  3  1  0
 21 10  1  0
 26 20  1  0
M  END
$$$$
