_rank16
     RDKit          3D

 28 30  0  0  0  0  0  0  0  0999 V2000
   18.2144   -4.1378  -10.6166 N   0  0  0  0  0  0  0  0  0  0  0  0
   18.7023   -3.0890  -10.5829 C   0  0  0  0  0  0  0  0  0  0  0  0
   19.3257   -1.7977  -10.5269 C   0  0  0  0  0  0  0  0  0  0  0  0
   18.7123   -0.7901   -9.8117 C   0  0  0  0  0  0  0  0  0  0  0  0
   19.3319    0.4406   -9.7739 C   0  0  0  0  0  0  0  0  0  0  0  0
   18.7735    1.4729   -9.0839 F   0  0  0  0  0  0  0  0  0  0  0  0
   20.5303    0.7015  -10.4171 C   0  0  0  0  0  0  0  0  0  0  0  0
   21.1360   -0.3098  -11.1288 C   0  0  0  0  0  0  0  0  0  0  0  0
   22.3373   -0.0793  -11.7842 O   0  0  0  0  0  0  0  0  0  0  0  0
   23.5074   -0.3087  -11.0355 C   0  0  0  0  0  0  0  0  0  0  0  0
   23.4968   -0.8868   -9.7952 C   0  0  0  0  0  0  0  0  0  0  0  0
   24.6304   -1.1108   -9.0680 C   0  0  0  0  0  0  0  0  0  0  0  0
   25.8591   -0.7246   -9.6322 C   0  0  0  0  0  0  0  0  0  0  0  0
   27.2662   -1.0993   -8.6762 S   0  0  1  0  0  6  0  0  0  0  0  0
   27.1564   -2.5035   -8.1220 O   0  0  0  0  0  0  0  0  0  0  0  0
   28.4913   -1.1163   -9.5571 O   0  0  0  0  0  0  0  0  0  0  0  0
   27.5691   -0.0092   -7.3413 C   0  0  1  0  0  0  0  0  0  0  0  0
   28.8486    0.1016   -6.9233 F   0  0  0  0  0  0  0  0  0  0  0  0
   27.1497    1.2873   -7.6846 F   0  0  0  0  0  0  0  0  0  0  0  0
   25.9300   -0.1345  -10.8818 C   0  0  0  0  0  0  0  0  0  0  0  0
   24.7513    0.0631  -11.5633 C   0  0  0  0  0  0  0  0  0  0  0  0
   25.0536    0.7066  -12.8604 C   0  0  0  0  0  0  0  0  0  0  0  0
   26.4918    0.3220  -13.0988 C   0  0  1  0  0  0  0  0  0  0  0  0
   26.5115   -0.9951  -13.4992 F   0  0  0  0  0  0  0  0  0  0  0  0
   27.1490    1.1578  -13.9522 F   0  0  0  0  0  0  0  0  0  0  0  0
   27.0700    0.4004  -11.6739 C   0  0  1  0  0  0  0  0  0  0  0  0
   27.3522    1.7223  -11.3417 O   0  0  0  0  0  0  0  0  0  0  0  0
   20.5190   -1.5538  -11.1728 C   0  0  0  0  0  0  0  0  0  0  0  0
  1  2  3  0
  2  3  1  0
  3  4  2  0
  4  5  1  0
  5  6  1  0
  5  7  2  0
  7  8  1  0
  8  9  1  0
  9 10  1  0
 10 11  2  0
 11 12  1  0
 12 13  2  0
 14 13  1  6
 14 15  2  0
 14 16  2  0
 14 17  1  0
 17 18  1  6
 17 19  1  0
 13 20  1  0
 20 21  2  0
 22 21  1  6
 22 23  1  0
 23 24  1  6
 23 25  1  0
 23 26  1  0
 26 27  1  1
  8 28  2  0
 28  3  1  0
 21 10  1  0
 26 20  1  0
M  END
$$$$
