_rank12
     RDKit          3D

 28 30  0  0  0  0  0  0  0  0999 V2000
   17.9009   -3.9648  -10.2552 N   0  0  0  0  0  0  0  0  0  0  0  0
   18.5071   -2.9798  -10.2902 C   0  0  0  0  0  0  0  0  0  0  0  0
   19.2398   -1.7471  -10.3456 C   0  0  0  0  0  0  0  0  0  0  0  0
   18.7085   -0.6263   -9.7418 C   0  0  0  0  0  0  0  0  0  0  0  0
   19.4324    0.5447   -9.8096 C   0  0  0  0  0  0  0  0  0  0  0  0
   18.9583    1.6829   -9.2323 F   0  0  0  0  0  0  0  0  0  0  0  0
   20.6559    0.6387  -10.4515 C   0  0  0  0  0  0  0  0  0  0  0  0
   21.1792   -0.4848  -11.0516 C   0  0  0  0  0  0  0  0  0  0  0  0
   22.4031   -0.4223  -11.7026 O   0  0  0  0  0  0  0  0  0  0  0  0
   23.5429   -0.3630  -10.8783 C   0  0  0  0  0  0  0  0  0  0  0  0
   23.5355   -0.7557   -9.5674 C   0  0  0  0  0  0  0  0  0  0  0  0
   24.6399   -0.6997   -8.7666 C   0  0  0  0  0  0  0  0  0  0  0  0
   25.8338   -0.2138   -9.3283 C   0  0  0  0  0  0  0  0  0  0  0  0
   27.2152   -0.2312   -8.2673 S   0  0  1  0  0  6  0  0  0  0  0  0
   28.0825    0.9818   -8.5270 O   0  0  0  0  0  0  0  0  0  0  0  0
   26.7599   -0.0929   -6.8353 O   0  0  0  0  0  0  0  0  0  0  0  0
   28.2236   -1.6565   -8.3840 C   0  0  1  0  0  0  0  0  0  0  0  0
   27.8384   -2.7357   -7.6691 F   0  0  0  0  0  0  0  0  0  0  0  0
   28.2997   -2.0740   -9.7236 F   0  0  0  0  0  0  0  0  0  0  0  0
   25.8997    0.1987  -10.6475 C   0  0  0  0  0  0  0  0  0  0  0  0
   24.7516    0.1164  -11.4012 C   0  0  0  0  0  0  0  0  0  0  0  0
   25.0414    0.6096  -12.7652 C   0  0  0  0  0  0  0  0  0  0  0  0
   26.5324    0.4194  -12.8814 C   0  0  1  0  0  0  0  0  0  0  0  0
   26.7685   -0.9224  -13.0802 F   0  0  0  0  0  0  0  0  0  0  0  0
   27.1159    1.2173  -13.8203 F   0  0  0  0  0  0  0  0  0  0  0  0
   26.9994    0.7845  -11.4603 C   0  0  1  0  0  0  0  0  0  0  0  0
   27.0652    2.1675  -11.3165 O   0  0  0  0  0  0  0  0  0  0  0  0
   20.4569   -1.6699  -10.9886 C   0  0  0  0  0  0  0  0  0  0  0  0
  1  2  3  0
  2  3  1  0
  3  4  2  0
  4  5  1  0
  5  6  1  0
  5  7  2  0
  7  8  1  0
  8  9  1  0
  9 10  1  0
 10 11  2  0
 11 12  1  0
 12 13  2  0
 14 13  1  6
 14 15  2  0
 14 16  2  0
 14 17  1  0
 17 18  1  1
 17 19  1  0
 13 20  1  0
 20 21  2  0
 22 21  1  6
 22 23  1  0
 23 24  1  6
 23 25  1  0
 23 26  1  0
 26 27  1  6
  8 28  2  0
 28  3  1  0
 21 10  1  0
 26 20  1  0
M  END
$$$$
