_rank17
     RDKit          3D

 28 30  0  0  0  0  0  0  0  0999 V2000
   17.5856   -3.6686  -10.0091 N   0  0  0  0  0  0  0  0  0  0  0  0
   18.2413   -2.7286  -10.1690 C   0  0  0  0  0  0  0  0  0  0  0  0
   19.0658   -1.5743  -10.3863 C   0  0  0  0  0  0  0  0  0  0  0  0
   18.6291   -0.3465   -9.9339 C   0  0  0  0  0  0  0  0  0  0  0  0
   19.4399    0.7459  -10.1555 C   0  0  0  0  0  0  0  0  0  0  0  0
   19.0613    1.9831   -9.7316 F   0  0  0  0  0  0  0  0  0  0  0  0
   20.6596    0.6601  -10.8058 C   0  0  0  0  0  0  0  0  0  0  0  0
   21.0881   -0.5693  -11.2542 C   0  0  0  0  0  0  0  0  0  0  0  0
   22.3057   -0.6875  -11.9094 O   0  0  0  0  0  0  0  0  0  0  0  0
   23.4569   -0.5342  -11.1136 C   0  0  0  0  0  0  0  0  0  0  0  0
   23.5144   -0.9255   -9.8036 C   0  0  0  0  0  0  0  0  0  0  0  0
   24.6300   -0.7785   -9.0303 C   0  0  0  0  0  0  0  0  0  0  0  0
   25.7656   -0.1964   -9.6208 C   0  0  0  0  0  0  0  0  0  0  0  0
   27.1698   -0.0996   -8.5944 S   0  0  1  0  0  6  0  0  0  0  0  0
   27.8553    1.2370   -8.7801 O   0  0  0  0  0  0  0  0  0  0  0  0
   26.7459   -0.1292   -7.1465 O   0  0  0  0  0  0  0  0  0  0  0  0
   28.3583   -1.3600   -8.8409 C   0  0  1  0  0  0  0  0  0  0  0  0
   29.1057   -1.7102   -7.7719 F   0  0  0  0  0  0  0  0  0  0  0  0
   27.7206   -2.5323   -9.2810 F   0  0  0  0  0  0  0  0  0  0  0  0
   25.7646    0.2194  -10.9406 C   0  0  0  0  0  0  0  0  0  0  0  0
   24.6087    0.0425  -11.6657 C   0  0  0  0  0  0  0  0  0  0  0  0
   24.8229    0.5572  -13.0357 C   0  0  0  0  0  0  0  0  0  0  0  0
   26.3212    0.4900  -13.1892 C   0  0  1  0  0  0  0  0  0  0  0  0
   26.6618   -0.8279  -13.3958 F   0  0  0  0  0  0  0  0  0  0  0  0
   26.8136    1.3327  -14.1411 F   0  0  0  0  0  0  0  0  0  0  0  0
   26.7918    0.8931  -11.7796 C   0  0  1  0  0  0  0  0  0  0  0  0
   26.7474    2.2769  -11.6354 O   0  0  0  0  0  0  0  0  0  0  0  0
   20.2777   -1.6764  -11.0356 C   0  0  0  0  0  0  0  0  0  0  0  0
  1  2  3  0
  2  3  1  0
  3  4  2  0
  4  5  1  0
  5  6  1  0
  5  7  2  0
  7  8  1  0
  8  9  1  0
  9 10  1  0
 10 11  2  0
 11 12  1  0
 12 13  2  0
 14 13  1  6
 14 15  2  0
 14 16  2  0
 14 17  1  0
 17 18  1  1
 17 19  1  0
 13 20  1  0
 20 21  2  0
 22 21  1  6
 22 23  1  0
 23 24  1  6
 23 25  1  0
 23 26  1  0
 26 27  1  6
  8 28  2  0
 28  3  1  0
 21 10  1  0
 26 20  1  0
M  END
$$$$
