_rank8
     RDKit          3D

 28 30  0  0  0  0  0  0  0  0999 V2000
   18.2069   -4.0559  -10.5795 N   0  0  0  0  0  0  0  0  0  0  0  0
   18.7276   -3.0225  -10.5695 C   0  0  0  0  0  0  0  0  0  0  0  0
   19.3777   -1.7436  -10.5326 C   0  0  0  0  0  0  0  0  0  0  0  0
   18.7884   -0.7148   -9.8274 C   0  0  0  0  0  0  0  0  0  0  0  0
   19.4334    0.5032   -9.8079 C   0  0  0  0  0  0  0  0  0  0  0  0
   18.8996    1.5554   -9.1284 F   0  0  0  0  0  0  0  0  0  0  0  0
   20.6336    0.7315  -10.4599 C   0  0  0  0  0  0  0  0  0  0  0  0
   21.2150   -0.3009  -11.1615 C   0  0  0  0  0  0  0  0  0  0  0  0
   22.4176   -0.1034  -11.8253 O   0  0  0  0  0  0  0  0  0  0  0  0
   23.5864   -0.3017  -11.0657 C   0  0  0  0  0  0  0  0  0  0  0  0
   23.5811   -0.8914   -9.8309 C   0  0  0  0  0  0  0  0  0  0  0  0
   24.7134   -1.0853   -9.0931 C   0  0  0  0  0  0  0  0  0  0  0  0
   25.9349   -0.6542   -9.6401 C   0  0  0  0  0  0  0  0  0  0  0  0
   27.3430   -0.9919   -8.6718 S   0  0  1  0  0  6  0  0  0  0  0  0
   27.0270   -2.0698   -7.6572 O   0  0  0  0  0  0  0  0  0  0  0  0
   28.4316   -1.5730   -9.5403 O   0  0  0  0  0  0  0  0  0  0  0  0
   28.0038    0.3841   -7.8164 C   0  0  1  0  0  0  0  0  0  0  0  0
   28.9853    1.0736   -8.4371 F   0  0  0  0  0  0  0  0  0  0  0  0
   26.9805    1.3079   -7.5440 F   0  0  0  0  0  0  0  0  0  0  0  0
   26.0002   -0.0504  -10.8833 C   0  0  0  0  0  0  0  0  0  0  0  0
   24.8231    0.1153  -11.5762 C   0  0  0  0  0  0  0  0  0  0  0  0
   25.1185    0.7803  -12.8640 C   0  0  0  0  0  0  0  0  0  0  0  0
   26.5709    0.4449  -13.0898 C   0  0  1  0  0  0  0  0  0  0  0  0
   26.6378   -0.8672  -13.5018 F   0  0  0  0  0  0  0  0  0  0  0  0
   27.2098    1.3095  -13.9282 F   0  0  0  0  0  0  0  0  0  0  0  0
   27.1307    0.5286  -11.6579 C   0  0  1  0  0  0  0  0  0  0  0  0
   27.3662    1.8558  -11.3107 O   0  0  0  0  0  0  0  0  0  0  0  0
   20.5725   -1.5325  -11.1871 C   0  0  0  0  0  0  0  0  0  0  0  0
  1  2  3  0
  2  3  1  0
  3  4  2  0
  4  5  1  0
  5  6  1  0
  5  7  2  0
  7  8  1  0
  8  9  1  0
  9 10  1  0
 10 11  2  0
 11 12  1  0
 12 13  2  0
 14 13  1  6
 14 15  2  0
 14 16  2  0
 14 17  1  0
 17 18  1  6
 17 19  1  0
 13 20  1  0
 20 21  2  0
 22 21  1  6
 22 23  1  0
 23 24  1  6
 23 25  1  0
 23 26  1  0
 26 27  1  1
  8 28  2  0
 28  3  1  0
 21 10  1  0
 26 20  1  0
M  END
$$$$
