_rank18
     RDKit          3D

 28 30  0  0  0  0  0  0  0  0999 V2000
   19.6892    1.2954   -7.3287 N   0  0  0  0  0  0  0  0  0  0  0  0
   19.7790    0.7284   -8.3334 C   0  0  0  0  0  0  0  0  0  0  0  0
   19.9143    0.0322   -9.5810 C   0  0  0  0  0  0  0  0  0  0  0  0
   18.8075   -0.5870  -10.1240 C   0  0  0  0  0  0  0  0  0  0  0  0
   18.9646   -1.2486  -11.3230 C   0  0  0  0  0  0  0  0  0  0  0  0
   17.9080   -1.8782  -11.9067 F   0  0  0  0  0  0  0  0  0  0  0  0
   20.1738   -1.3152  -11.9947 C   0  0  0  0  0  0  0  0  0  0  0  0
   21.2735   -0.6944  -11.4458 C   0  0  0  0  0  0  0  0  0  0  0  0
   22.4990   -0.7434  -12.0950 O   0  0  0  0  0  0  0  0  0  0  0  0
   23.6374   -0.8106  -11.2693 C   0  0  0  0  0  0  0  0  0  0  0  0
   23.6385   -1.4354  -10.0518 C   0  0  0  0  0  0  0  0  0  0  0  0
   24.7415   -1.5025   -9.2498 C   0  0  0  0  0  0  0  0  0  0  0  0
   25.9245   -0.8970   -9.7092 C   0  0  0  0  0  0  0  0  0  0  0  0
   27.3061   -1.0777   -8.6636 S   0  0  1  0  0  6  0  0  0  0  0  0
   27.2111   -2.3819   -7.9013 O   0  0  0  0  0  0  0  0  0  0  0  0
   28.5612   -1.1946   -9.4929 O   0  0  0  0  0  0  0  0  0  0  0  0
   27.5354    0.2142   -7.5058 C   0  0  1  0  0  0  0  0  0  0  0  0
   27.7646    1.4475   -8.0064 F   0  0  0  0  0  0  0  0  0  0  0  0
   26.3989    0.3228   -6.6867 F   0  0  0  0  0  0  0  0  0  0  0  0
   25.9814   -0.2501  -10.9310 C   0  0  0  0  0  0  0  0  0  0  0  0
   24.8352   -0.2184  -11.6915 C   0  0  0  0  0  0  0  0  0  0  0  0
   25.1142    0.5209  -12.9419 C   0  0  0  0  0  0  0  0  0  0  0  0
   26.6090    0.3869  -13.0850 C   0  0  1  0  0  0  0  0  0  0  0  0
   26.8741   -0.8910  -13.5236 F   0  0  0  0  0  0  0  0  0  0  0  0
   27.1749    1.3546  -13.8608 F   0  0  0  0  0  0  0  0  0  0  0  0
   27.0680    0.4973  -11.6194 C   0  0  1  0  0  0  0  0  0  0  0  0
   27.1038    1.8321  -11.2261 O   0  0  0  0  0  0  0  0  0  0  0  0
   21.1252   -0.0249  -10.2375 C   0  0  0  0  0  0  0  0  0  0  0  0
  1  2  3  0
  2  3  1  0
  3  4  2  0
  4  5  1  0
  5  6  1  0
  5  7  2  0
  7  8  1  0
  8  9  1  0
  9 10  1  0
 10 11  2  0
 11 12  1  0
 12 13  2  0
 14 13  1  6
 14 15  2  0
 14 16  2  0
 14 17  1  0
 17 18  1  6
 17 19  1  0
 13 20  1  0
 20 21  2  0
 22 21  1  6
 22 23  1  0
 23 24  1  6
 23 25  1  0
 23 26  1  0
 26 27  1  1
  8 28  2  0
 28  3  1  0
 21 10  1  0
 26 20  1  0
M  END
$$$$
