
     RDKit          3D

 52 54  0  0  0  0  0  0  0  0999 V2000
    3.2254    2.9259    0.0033 C   0  0  0  0  0  0  0  0  0  0  0  0
    4.0504    1.6586    0.2057 C   0  0  0  0  0  0  0  0  0  0  0  0
    3.3498    0.4927   -0.3540 N   0  0  0  0  0  0  0  0  0  0  0  0
    3.7669   -0.0154   -1.6694 C   0  0  0  0  0  0  0  0  0  0  0  0
    4.6268   -1.2659   -1.5139 C   0  0  0  0  0  0  0  0  0  0  0  0
    2.2469   -0.0940    0.3792 C   0  0  0  0  0  0  0  0  0  0  0  0
    1.9721    0.3389    1.5324 O   0  0  0  0  0  0  0  0  0  0  0  0
    1.4418   -1.1460   -0.1848 N   0  0  0  0  0  0  0  0  0  0  0  0
    0.1046   -1.4704    0.3312 C   0  0  2  0  0  0  0  0  0  0  0  0
   -0.1078   -2.9701    0.4033 C   0  0  0  0  0  0  0  0  0  0  0  0
   -1.6102   -3.1135    0.3158 C   0  0  0  0  0  0  0  0  0  0  0  0
   -2.0796   -2.0212   -0.5440 N   0  0  0  0  0  0  0  0  0  0  0  0
   -3.4808   -1.6357   -0.3179 C   0  0  0  0  0  0  0  0  0  0  0  0
   -3.6362   -0.7262    0.8938 C   0  0  0  0  0  0  0  0  0  0  0  0
   -2.7735    0.4962    0.7461 C   0  0  0  0  0  0  0  0  0  0  0  0
   -3.1312    1.7181    1.3757 C   0  0  0  0  0  0  0  0  0  0  0  0
   -4.3913    1.8520    2.1920 C   0  0  0  0  0  0  0  0  0  0  0  0
   -2.3065    2.8415    1.2231 C   0  0  0  0  0  0  0  0  0  0  0  0
   -1.1223    2.7547    0.5004 C   0  0  0  0  0  0  0  0  0  0  0  0
   -0.7431    1.5485   -0.0802 C   0  0  0  0  0  0  0  0  0  0  0  0
   -1.5581    0.4020    0.0238 C   0  0  0  0  0  0  0  0  0  0  0  0
   -1.0625   -0.9397   -0.5536 C   0  0  1  0  0  0  0  0  0  0  0  0
   -0.6609   -0.7620   -2.0372 C   0  0  0  0  0  0  0  0  0  0  0  0
    3.7857    3.8018    0.3925 H   0  0  0  0  0  0  0  0  0  0  0  0
    3.0242    3.0799   -1.0781 H   0  0  0  0  0  0  0  0  0  0  0  0
    2.2599    2.8526    0.5461 H   0  0  0  0  0  0  0  0  0  0  0  0
    5.0403    1.7941   -0.2824 H   0  0  0  0  0  0  0  0  0  0  0  0
    4.2490    1.5040    1.2883 H   0  0  0  0  0  0  0  0  0  0  0  0
    4.3626    0.7512   -2.2118 H   0  0  0  0  0  0  0  0  0  0  0  0
    2.8836   -0.2169   -2.3105 H   0  0  0  0  0  0  0  0  0  0  0  0
    4.0741   -2.0640   -0.9772 H   0  0  0  0  0  0  0  0  0  0  0  0
    4.9178   -1.6451   -2.5160 H   0  0  0  0  0  0  0  0  0  0  0  0
    5.5475   -1.0214   -0.9428 H   0  0  0  0  0  0  0  0  0  0  0  0
    1.7633   -1.6466   -1.0408 H   0  0  0  0  0  0  0  0  0  0  0  0
   -0.0103   -1.0883    1.3721 H   0  0  0  0  0  0  0  0  0  0  0  0
    0.2919   -3.3997    1.3477 H   0  0  0  0  0  0  0  0  0  0  0  0
    0.3612   -3.4799   -0.4675 H   0  0  0  0  0  0  0  0  0  0  0  0
   -1.8833   -4.0937   -0.1302 H   0  0  0  0  0  0  0  0  0  0  0  0
   -2.0425   -3.0471    1.3380 H   0  0  0  0  0  0  0  0  0  0  0  0
   -4.1125   -2.5421   -0.1870 H   0  0  0  0  0  0  0  0  0  0  0  0
   -3.8566   -1.1084   -1.2220 H   0  0  0  0  0  0  0  0  0  0  0  0
   -3.3618   -1.2576    1.8283 H   0  0  0  0  0  0  0  0  0  0  0  0
   -4.7097   -0.4517    0.9590 H   0  0  0  0  0  0  0  0  0  0  0  0
   -5.2752    1.8335    1.5207 H   0  0  0  0  0  0  0  0  0  0  0  0
   -4.4093    2.8040    2.7644 H   0  0  0  0  0  0  0  0  0  0  0  0
   -4.4629    1.0216    2.9257 H   0  0  0  0  0  0  0  0  0  0  0  0
   -2.5729    3.7882    1.6770 H   0  0  0  0  0  0  0  0  0  0  0  0
   -0.4841    3.6238    0.4039 H   0  0  0  0  0  0  0  0  0  0  0  0
    0.2026    1.5165   -0.6001 H   0  0  0  0  0  0  0  0  0  0  0  0
   -1.5290   -0.3867   -2.6206 H   0  0  0  0  0  0  0  0  0  0  0  0
    0.1790   -0.0525   -2.1763 H   0  0  0  0  0  0  0  0  0  0  0  0
   -0.3533   -1.7380   -2.4710 H   0  0  0  0  0  0  0  0  0  0  0  0
  1  2  1  0
  2  3  1  0
  3  4  1  0
  4  5  1  0
  3  6  1  0
  6  7  2  0
  6  8  1  0
  8  9  1  0
  9 10  1  0
 10 11  1  0
 11 12  1  0
 12 13  1  0
 13 14  1  0
 14 15  1  0
 15 16  2  0
 16 17  1  0
 16 18  1  0
 18 19  2  0
 19 20  1  0
 20 21  2  0
 21 22  1  0
 22 23  1  6
 22  9  1  0
 22 12  1  0
 21 15  1  0
  1 24  1  0
  1 25  1  0
  1 26  1  0
  2 27  1  0
  2 28  1  0
  4 29  1  0
  4 30  1  0
  5 31  1  0
  5 32  1  0
  5 33  1  0
  8 34  1  0
  9 35  1  1
 10 36  1  0
 10 37  1  0
 11 38  1  0
 11 39  1  0
 13 40  1  0
 13 41  1  0
 14 42  1  0
 14 43  1  0
 17 44  1  0
 17 45  1  0
 17 46  1  0
 18 47  1  0
 19 48  1  0
 20 49  1  0
 23 50  1  0
 23 51  1  0
 23 52  1  0
M  END
$$$$
