_rank3
     RDKit          3D

 25 27  0  0  0  0  0  0  0  0999 V2000
   28.3861    0.7768   -8.3510 C   0  0  0  0  0  0  0  0  0  0  0  0
   27.6487   -0.8009   -8.5932 S   0  0  1  0  0  6  0  0  0  0  0  0
   28.6031   -1.7091   -9.3252 O   0  0  0  0  0  0  0  0  0  0  0  0
   27.3245   -1.3738   -7.2425 O   0  0  0  0  0  0  0  0  0  0  0  0
   26.1357   -0.6684   -9.4753 C   0  0  0  0  0  0  0  0  0  0  0  0
   24.9992   -1.2156   -8.9331 C   0  0  0  0  0  0  0  0  0  0  0  0
   23.8373   -1.0845   -9.6640 C   0  0  0  0  0  0  0  0  0  0  0  0
   23.7752   -0.4514  -10.8684 C   0  0  0  0  0  0  0  0  0  0  0  0
   22.6152   -0.3070  -11.6230 O   0  0  0  0  0  0  0  0  0  0  0  0
   21.3526   -0.5635  -11.0873 C   0  0  0  0  0  0  0  0  0  0  0  0
   20.8714   -1.8513  -11.1813 C   0  0  0  0  0  0  0  0  0  0  0  0
   19.6256   -2.1223  -10.6571 C   0  0  0  0  0  0  0  0  0  0  0  0
   19.1561   -3.3983  -10.7538 F   0  0  0  0  0  0  0  0  0  0  0  0
   18.8912   -1.1214  -10.0574 C   0  0  0  0  0  0  0  0  0  0  0  0
   19.3537    0.1751   -9.9523 C   0  0  0  0  0  0  0  0  0  0  0  0
   18.5784    1.2137   -9.3240 C   0  0  0  0  0  0  0  0  0  0  0  0
   17.9382    2.0398   -8.8251 N   0  0  0  0  0  0  0  0  0  0  0  0
   20.6020    0.4233  -10.4834 C   0  0  0  0  0  0  0  0  0  0  0  0
   24.9375    0.1084  -11.4231 C   0  0  0  0  0  0  0  0  0  0  0  0
   26.0946   -0.0161  -10.7065 C   0  0  0  0  0  0  0  0  0  0  0  0
   27.2257    0.6276  -11.4367 C   0  0  2  0  0  0  0  0  0  0  0  0
   27.4669    1.9026  -10.9550 O   0  0  0  0  0  0  0  0  0  0  0  0
   26.6637    0.7489  -12.8598 C   0  0  1  0  0  0  0  0  0  0  0  0
   27.0522   -0.3601  -13.5937 F   0  0  0  0  0  0  0  0  0  0  0  0
   25.1816    0.8430  -12.6829 C   0  0  0  0  0  0  0  0  0  0  0  0
  1  2  1  6
  2  3  2  0
  2  4  2  0
  2  5  1  6
  5  6  2  0
  6  7  1  0
  7  8  2  0
  8  9  1  0
  9 10  1  0
 10 11  2  0
 11 12  1  0
 12 13  1  0
 12 14  2  0
 14 15  1  0
 15 16  1  0
 16 17  3  0
 15 18  2  0
  8 19  1  0
 19 20  2  0
 20 21  1  0
 21 22  1  1
 21 23  1  0
 23 24  1  6
 23 25  1  0
 20  5  1  0
 18 10  1  0
 25 19  1  6
M  END
$$$$
