_rank11
     RDKit          3D

 25 27  0  0  0  0  0  0  0  0999 V2000
   27.6626    0.9562   -7.2843 C   0  0  0  0  0  0  0  0  0  0  0  0
   27.6874   -0.2981   -8.5162 S   0  0  1  0  0  6  0  0  0  0  0  0
   28.8557   -0.0860   -9.4444 O   0  0  0  0  0  0  0  0  0  0  0  0
   27.8126   -1.6258   -7.8240 O   0  0  0  0  0  0  0  0  0  0  0  0
   26.1848   -0.3285   -9.4250 C   0  0  0  0  0  0  0  0  0  0  0  0
   25.0496   -0.8063   -8.8182 C   0  0  0  0  0  0  0  0  0  0  0  0
   23.8960   -0.8088   -9.5734 C   0  0  0  0  0  0  0  0  0  0  0  0
   23.8405   -0.3684  -10.8611 C   0  0  0  0  0  0  0  0  0  0  0  0
   22.6888   -0.3614  -11.6418 O   0  0  0  0  0  0  0  0  0  0  0  0
   21.4318   -0.6336  -11.1007 C   0  0  0  0  0  0  0  0  0  0  0  0
   20.8806    0.3130  -10.2647 C   0  0  0  0  0  0  0  0  0  0  0  0
   19.6391    0.0603   -9.7214 C   0  0  0  0  0  0  0  0  0  0  0  0
   19.1003    1.0011   -8.8953 F   0  0  0  0  0  0  0  0  0  0  0  0
   18.9777   -1.1131  -10.0154 C   0  0  0  0  0  0  0  0  0  0  0  0
   19.5109   -2.0748  -10.8500 C   0  0  0  0  0  0  0  0  0  0  0  0
   18.8118   -3.2976  -11.1506 C   0  0  0  0  0  0  0  0  0  0  0  0
   18.2645   -4.2860  -11.4049 N   0  0  0  0  0  0  0  0  0  0  0  0
   20.7535   -1.8009  -11.3820 C   0  0  0  0  0  0  0  0  0  0  0  0
   25.0013    0.1203  -11.4820 C   0  0  0  0  0  0  0  0  0  0  0  0
   26.1503    0.1271  -10.7419 C   0  0  0  0  0  0  0  0  0  0  0  0
   27.2811    0.6714  -11.5493 C   0  0  2  0  0  0  0  0  0  0  0  0
   27.4957    2.0091  -11.2657 O   0  0  0  0  0  0  0  0  0  0  0  0
   26.7368    0.5639  -12.9804 C   0  0  1  0  0  0  0  0  0  0  0  0
   27.1527   -0.6372  -13.5316 F   0  0  0  0  0  0  0  0  0  0  0  0
   25.2512    0.6579  -12.8365 C   0  0  0  0  0  0  0  0  0  0  0  0
  1  2  1  6
  2  3  2  0
  2  4  2  0
  2  5  1  6
  5  6  2  0
  6  7  1  0
  7  8  2  0
  8  9  1  0
  9 10  1  0
 10 11  2  0
 11 12  1  0
 12 13  1  0
 12 14  2  0
 14 15  1  0
 15 16  1  0
 16 17  3  0
 15 18  2  0
  8 19  1  0
 19 20  2  0
 20 21  1  0
 21 22  1  1
 21 23  1  0
 23 24  1  1
 23 25  1  0
 20  5  1  0
 18 10  1  0
 25 19  1  6
M  END
$$$$
