_rank19
     RDKit          3D

 25 27  0  0  0  0  0  0  0  0999 V2000
   27.8973    2.9224  -12.8126 C   0  0  0  0  0  0  0  0  0  0  0  0
   27.9752    1.1757  -12.6271 S   0  0  1  0  0  6  0  0  0  0  0  0
   28.0619    0.5170  -13.9798 O   0  0  0  0  0  0  0  0  0  0  0  0
   29.1966    0.8495  -11.8150 O   0  0  0  0  0  0  0  0  0  0  0  0
   26.5869    0.5666  -11.7404 C   0  0  0  0  0  0  0  0  0  0  0  0
   25.3301    0.9834  -12.1035 C   0  0  0  0  0  0  0  0  0  0  0  0
   24.2737    0.4763  -11.3770 C   0  0  0  0  0  0  0  0  0  0  0  0
   24.4242   -0.3971  -10.3427 C   0  0  0  0  0  0  0  0  0  0  0  0
   23.3738   -0.9217   -9.5961 O   0  0  0  0  0  0  0  0  0  0  0  0
   22.0524   -0.8574  -10.0393 C   0  0  0  0  0  0  0  0  0  0  0  0
   21.6716   -1.7325  -11.0334 C   0  0  0  0  0  0  0  0  0  0  0  0
   20.3695   -1.6827  -11.4832 C   0  0  0  0  0  0  0  0  0  0  0  0
   20.0002   -2.5512  -12.4666 F   0  0  0  0  0  0  0  0  0  0  0  0
   19.4821   -0.7760  -10.9435 C   0  0  0  0  0  0  0  0  0  0  0  0
   19.8419    0.1094   -9.9475 C   0  0  0  0  0  0  0  0  0  0  0  0
   18.9071    1.0531   -9.3906 C   0  0  0  0  0  0  0  0  0  0  0  0
   18.1440    1.7965   -8.9363 N   0  0  0  0  0  0  0  0  0  0  0  0
   21.1491    0.0419   -9.5130 C   0  0  0  0  0  0  0  0  0  0  0  0
   25.7094   -0.8236   -9.9710 C   0  0  0  0  0  0  0  0  0  0  0  0
   26.7636   -0.3266  -10.6849 C   0  0  0  0  0  0  0  0  0  0  0  0
   28.0476   -0.8767  -10.1600 C   0  0  2  0  0  0  0  0  0  0  0  0
   28.4780   -1.9486  -10.9227 O   0  0  0  0  0  0  0  0  0  0  0  0
   27.6324   -1.4040   -8.7796 C   0  0  1  0  0  0  0  0  0  0  0  0
   27.8695   -0.4214   -7.8320 F   0  0  0  0  0  0  0  0  0  0  0  0
   26.1830   -1.7461   -8.9170 C   0  0  0  0  0  0  0  0  0  0  0  0
  1  2  1  6
  2  3  2  0
  2  4  2  0
  2  5  1  1
  5  6  2  0
  6  7  1  0
  7  8  2  0
  8  9  1  0
  9 10  1  0
 10 11  2  0
 11 12  1  0
 12 13  1  0
 12 14  2  0
 14 15  1  0
 15 16  1  0
 16 17  3  0
 15 18  2  0
  8 19  1  0
 19 20  2  0
 20 21  1  0
 21 22  1  6
 21 23  1  0
 23 24  1  1
 23 25  1  0
 20  5  1  0
 18 10  1  0
 25 19  1  6
M  END
$$$$
