_rank9
     RDKit          3D

 25 27  0  0  0  0  0  0  0  0999 V2000
   27.5488   -0.6783   -6.8815 C   0  0  0  0  0  0  0  0  0  0  0  0
   27.7647   -0.5261   -8.6197 S   0  0  1  0  0  6  0  0  0  0  0  0
   28.6860    0.6267   -8.9258 O   0  0  0  0  0  0  0  0  0  0  0  0
   28.3580   -1.8098   -9.1277 O   0  0  0  0  0  0  0  0  0  0  0  0
   26.2251   -0.3094   -9.4365 C   0  0  0  0  0  0  0  0  0  0  0  0
   25.0675   -0.6255   -8.7693 C   0  0  0  0  0  0  0  0  0  0  0  0
   23.8853   -0.4372   -9.4535 C   0  0  0  0  0  0  0  0  0  0  0  0
   23.8231    0.0367  -10.7290 C   0  0  0  0  0  0  0  0  0  0  0  0
   22.6428    0.2348  -11.4385 O   0  0  0  0  0  0  0  0  0  0  0  0
   21.4114   -0.2110  -10.9569 C   0  0  0  0  0  0  0  0  0  0  0  0
   20.6045    0.7100  -10.3248 C   0  0  0  0  0  0  0  0  0  0  0  0
   19.3843    0.2866   -9.8430 C   0  0  0  0  0  0  0  0  0  0  0  0
   18.5916    1.2030   -9.2188 F   0  0  0  0  0  0  0  0  0  0  0  0
   18.9944   -1.0269   -9.9964 C   0  0  0  0  0  0  0  0  0  0  0  0
   19.7865   -1.9659  -10.6260 C   0  0  0  0  0  0  0  0  0  0  0  0
   19.3700   -3.3359  -10.7809 C   0  0  0  0  0  0  0  0  0  0  0  0
   19.0407   -4.4368  -10.9249 N   0  0  0  0  0  0  0  0  0  0  0  0
   21.0026   -1.5202  -11.1000 C   0  0  0  0  0  0  0  0  0  0  0  0
   25.0069    0.3602  -11.4116 C   0  0  0  0  0  0  0  0  0  0  0  0
   26.1843    0.1770  -10.7422 C   0  0  0  0  0  0  0  0  0  0  0  0
   27.3361    0.5643  -11.6083 C   0  0  2  0  0  0  0  0  0  0  0  0
   27.7664    1.8476  -11.3188 O   0  0  0  0  0  0  0  0  0  0  0  0
   26.7005    0.5734  -13.0054 C   0  0  1  0  0  0  0  0  0  0  0  0
   26.8976   -0.6633  -13.5981 F   0  0  0  0  0  0  0  0  0  0  0  0
   25.2569    0.8859  -12.7707 C   0  0  0  0  0  0  0  0  0  0  0  0
  1  2  1  6
  2  3  2  0
  2  4  2  0
  2  5  1  6
  5  6  2  0
  6  7  1  0
  7  8  2  0
  8  9  1  0
  9 10  1  0
 10 11  2  0
 11 12  1  0
 12 13  1  0
 12 14  2  0
 14 15  1  0
 15 16  1  0
 16 17  3  0
 15 18  2  0
  8 19  1  0
 19 20  2  0
 20 21  1  0
 21 22  1  1
 21 23  1  0
 23 24  1  1
 23 25  1  0
 20  5  1  0
 18 10  1  0
 25 19  1  6
M  END
$$$$
