_rank4
     RDKit          3D

 25 27  0  0  0  0  0  0  0  0999 V2000
   28.5407    1.1284   -8.4768 C   0  0  0  0  0  0  0  0  0  0  0  0
   27.7604   -0.4299   -8.7094 S   0  0  1  0  0  6  0  0  0  0  0  0
   28.6778   -1.3586   -9.4626 O   0  0  0  0  0  0  0  0  0  0  0  0
   27.4486   -0.9995   -7.3543 O   0  0  0  0  0  0  0  0  0  0  0  0
   26.2342   -0.2575   -9.5613 C   0  0  0  0  0  0  0  0  0  0  0  0
   25.0672   -0.5581   -8.9034 C   0  0  0  0  0  0  0  0  0  0  0  0
   23.8962   -0.4060   -9.6154 C   0  0  0  0  0  0  0  0  0  0  0  0
   23.8536    0.0187  -10.9089 C   0  0  0  0  0  0  0  0  0  0  0  0
   22.6850    0.1796  -11.6465 O   0  0  0  0  0  0  0  0  0  0  0  0
   21.4394   -0.1962  -11.1424 C   0  0  0  0  0  0  0  0  0  0  0  0
   21.0566   -1.5097  -11.3067 C   0  0  0  0  0  0  0  0  0  0  0  0
   19.8289   -1.8982  -10.8145 C   0  0  0  0  0  0  0  0  0  0  0  0
   19.4570   -3.1989  -10.9808 F   0  0  0  0  0  0  0  0  0  0  0  0
   19.0156   -0.9858  -10.1768 C   0  0  0  0  0  0  0  0  0  0  0  0
   19.3788    0.3344  -10.0013 C   0  0  0  0  0  0  0  0  0  0  0  0
   18.5215    1.2799   -9.3338 C   0  0  0  0  0  0  0  0  0  0  0  0
   17.8481    2.0523   -8.7942 N   0  0  0  0  0  0  0  0  0  0  0  0
   20.6108    0.7007  -10.5015 C   0  0  0  0  0  0  0  0  0  0  0  0
   25.0471    0.3262  -11.5819 C   0  0  0  0  0  0  0  0  0  0  0  0
   26.2135    0.1787  -10.8850 C   0  0  0  0  0  0  0  0  0  0  0  0
   27.3778    0.5427  -11.7445 C   0  0  2  0  0  0  0  0  0  0  0  0
   27.7926    1.8397  -11.4963 O   0  0  0  0  0  0  0  0  0  0  0  0
   26.7678    0.4933  -13.1521 C   0  0  1  0  0  0  0  0  0  0  0  0
   26.9854   -0.7632  -13.6936 F   0  0  0  0  0  0  0  0  0  0  0  0
   25.3177    0.8021  -12.9554 C   0  0  0  0  0  0  0  0  0  0  0  0
  1  2  1  6
  2  3  2  0
  2  4  2  0
  2  5  1  6
  5  6  2  0
  6  7  1  0
  7  8  2  0
  8  9  1  0
  9 10  1  0
 10 11  2  0
 11 12  1  0
 12 13  1  0
 12 14  2  0
 14 15  1  0
 15 16  1  0
 16 17  3  0
 15 18  2  0
  8 19  1  0
 19 20  2  0
 20 21  1  0
 21 22  1  1
 21 23  1  0
 23 24  1  1
 23 25  1  0
 20  5  1  0
 18 10  1  0
 25 19  1  6
M  END
$$$$
