_rank2
     RDKit          3D

 25 27  0  0  0  0  0  0  0  0999 V2000
   28.2265    1.3185   -8.3886 C   0  0  0  0  0  0  0  0  0  0  0  0
   27.5244   -0.2923   -8.3262 S   0  0  1  0  0  6  0  0  0  0  0  0
   28.5288   -1.3111   -8.8003 O   0  0  0  0  0  0  0  0  0  0  0  0
   27.1361   -0.5743   -6.9024 O   0  0  0  0  0  0  0  0  0  0  0  0
   26.0592   -0.3865   -9.2900 C   0  0  0  0  0  0  0  0  0  0  0  0
   24.9186   -0.8947   -8.7192 C   0  0  0  0  0  0  0  0  0  0  0  0
   23.7952   -0.9470   -9.5170 C   0  0  0  0  0  0  0  0  0  0  0  0
   23.7738   -0.5262  -10.8122 C   0  0  0  0  0  0  0  0  0  0  0  0
   22.6530   -0.5692  -11.6355 O   0  0  0  0  0  0  0  0  0  0  0  0
   21.3629   -0.6828  -11.1163 C   0  0  0  0  0  0  0  0  0  0  0  0
   20.6926   -1.8674  -11.3315 C   0  0  0  0  0  0  0  0  0  0  0  0
   19.4170   -1.9968  -10.8253 C   0  0  0  0  0  0  0  0  0  0  0  0
   18.7601   -3.1712  -11.0423 F   0  0  0  0  0  0  0  0  0  0  0  0
   18.8392   -0.9599  -10.1240 C   0  0  0  0  0  0  0  0  0  0  0  0
   19.4921    0.2349   -9.8968 C   0  0  0  0  0  0  0  0  0  0  0  0
   18.8794    1.3123   -9.1630 C   0  0  0  0  0  0  0  0  0  0  0  0
   18.3794    2.1651   -8.5598 N   0  0  0  0  0  0  0  0  0  0  0  0
   20.7669    0.3421  -10.4121 C   0  0  0  0  0  0  0  0  0  0  0  0
   24.9402   -0.0064  -11.3963 C   0  0  0  0  0  0  0  0  0  0  0  0
   26.0594    0.0498  -10.6140 C   0  0  0  0  0  0  0  0  0  0  0  0
   27.2010    0.6216  -11.3864 C   0  0  2  0  0  0  0  0  0  0  0  0
   27.3595    1.9696  -11.1148 O   0  0  0  0  0  0  0  0  0  0  0  0
   26.7154    0.4762  -12.8352 C   0  0  1  0  0  0  0  0  0  0  0  0
   27.1921   -0.7174  -13.3525 F   0  0  0  0  0  0  0  0  0  0  0  0
   25.2230    0.5211  -12.7484 C   0  0  0  0  0  0  0  0  0  0  0  0
  1  2  1  6
  2  3  2  0
  2  4  2  0
  2  5  1  6
  5  6  2  0
  6  7  1  0
  7  8  2  0
  8  9  1  0
  9 10  1  0
 10 11  2  0
 11 12  1  0
 12 13  1  0
 12 14  2  0
 14 15  1  0
 15 16  1  0
 16 17  3  0
 15 18  2  0
  8 19  1  0
 19 20  2  0
 20 21  1  0
 21 22  1  1
 21 23  1  0
 23 24  1  1
 23 25  1  0
 20  5  1  0
 18 10  1  0
 25 19  1  6
M  END
$$$$
