_rank13
     RDKit          3D

 25 27  0  0  0  0  0  0  0  0999 V2000
   28.3205    1.0786   -8.7373 C   0  0  0  0  0  0  0  0  0  0  0  0
   27.5048   -0.4415   -8.3975 S   0  0  1  0  0  6  0  0  0  0  0  0
   28.4155   -1.5984   -8.7197 O   0  0  0  0  0  0  0  0  0  0  0  0
   27.1448   -0.4588   -6.9388 O   0  0  0  0  0  0  0  0  0  0  0  0
   26.0052   -0.5760   -9.3018 C   0  0  0  0  0  0  0  0  0  0  0  0
   24.8865   -1.0570   -8.6676 C   0  0  0  0  0  0  0  0  0  0  0  0
   23.7346   -1.1428   -9.4204 C   0  0  0  0  0  0  0  0  0  0  0  0
   23.6654   -0.7794  -10.7313 C   0  0  0  0  0  0  0  0  0  0  0  0
   22.5151   -0.8572  -11.5101 O   0  0  0  0  0  0  0  0  0  0  0  0
   21.2402   -0.8328  -10.9436 C   0  0  0  0  0  0  0  0  0  0  0  0
   20.8005    0.3627  -10.4180 C   0  0  0  0  0  0  0  0  0  0  0  0
   19.5431    0.4047   -9.8544 C   0  0  0  0  0  0  0  0  0  0  0  0
   19.1150    1.5905   -9.3363 F   0  0  0  0  0  0  0  0  0  0  0  0
   18.7570   -0.7275   -9.8242 C   0  0  0  0  0  0  0  0  0  0  0  0
   19.1773   -1.9350  -10.3446 C   0  0  0  0  0  0  0  0  0  0  0  0
   18.3482   -3.1123  -10.3079 C   0  0  0  0  0  0  0  0  0  0  0  0
   17.6966   -4.0694  -10.2870 N   0  0  0  0  0  0  0  0  0  0  0  0
   20.4381   -1.9538  -10.9033 C   0  0  0  0  0  0  0  0  0  0  0  0
   24.8094   -0.2874  -11.3802 C   0  0  0  0  0  0  0  0  0  0  0  0
   25.9566   -0.1984  -10.6427 C   0  0  0  0  0  0  0  0  0  0  0  0
   27.0689    0.3372  -11.4810 C   0  0  2  0  0  0  0  0  0  0  0  0
   27.2369    1.6957  -11.2751 O   0  0  0  0  0  0  0  0  0  0  0  0
   26.5303    0.1289  -12.9032 C   0  0  1  0  0  0  0  0  0  0  0  0
   26.9880   -1.0869  -13.3846 F   0  0  0  0  0  0  0  0  0  0  0  0
   25.0422    0.1796  -12.7636 C   0  0  0  0  0  0  0  0  0  0  0  0
  1  2  1  6
  2  3  2  0
  2  4  2  0
  2  5  1  6
  5  6  2  0
  6  7  1  0
  7  8  2  0
  8  9  1  0
  9 10  1  0
 10 11  2  0
 11 12  1  0
 12 13  1  0
 12 14  2  0
 14 15  1  0
 15 16  1  0
 16 17  3  0
 15 18  2  0
  8 19  1  0
 19 20  2  0
 20 21  1  0
 21 22  1  1
 21 23  1  0
 23 24  1  1
 23 25  1  0
 20  5  1  0
 18 10  1  0
 25 19  1  6
M  END
$$$$
