_rank17
     RDKit          3D

 25 27  0  0  0  0  0  0  0  0999 V2000
   28.8321   -1.0828   -8.7368 C   0  0  0  0  0  0  0  0  0  0  0  0
   27.5474    0.1155   -8.6660 S   0  0  1  0  0  6  0  0  0  0  0  0
   27.2111    0.4264   -7.2301 O   0  0  0  0  0  0  0  0  0  0  0  0
   28.0309    1.3557   -9.3630 O   0  0  0  0  0  0  0  0  0  0  0  0
   26.1157   -0.4339   -9.5221 C   0  0  0  0  0  0  0  0  0  0  0  0
   25.1744   -1.1671   -8.8428 C   0  0  0  0  0  0  0  0  0  0  0  0
   24.0688   -1.5742   -9.5592 C   0  0  0  0  0  0  0  0  0  0  0  0
   23.8797   -1.2854  -10.8768 C   0  0  0  0  0  0  0  0  0  0  0  0
   22.7730   -1.6851  -11.6193 O   0  0  0  0  0  0  0  0  0  0  0  0
   21.4701   -1.4030  -11.2075 C   0  0  0  0  0  0  0  0  0  0  0  0
   20.4797   -2.2852  -11.5814 C   0  0  0  0  0  0  0  0  0  0  0  0
   19.1866   -2.0220  -11.1829 C   0  0  0  0  0  0  0  0  0  0  0  0
   18.2124   -2.8989  -11.5566 F   0  0  0  0  0  0  0  0  0  0  0  0
   18.9059   -0.9015  -10.4302 C   0  0  0  0  0  0  0  0  0  0  0  0
   19.8820   -0.0047  -10.0447 C   0  0  0  0  0  0  0  0  0  0  0  0
   19.5782    1.1632   -9.2584 C   0  0  0  0  0  0  0  0  0  0  0  0
   19.3467    2.1130   -8.6375 N   0  0  0  0  0  0  0  0  0  0  0  0
   21.1680   -0.2880  -10.4544 C   0  0  0  0  0  0  0  0  0  0  0  0
   24.8422   -0.5354  -11.5718 C   0  0  0  0  0  0  0  0  0  0  0  0
   25.9420   -0.1271  -10.8708 C   0  0  0  0  0  0  0  0  0  0  0  0
   26.8585    0.6504  -11.7553 C   0  0  2  0  0  0  0  0  0  0  0  0
   26.6715    2.0120  -11.5909 O   0  0  0  0  0  0  0  0  0  0  0  0
   26.3628    0.2618  -13.1550 C   0  0  1  0  0  0  0  0  0  0  0  0
   27.1108   -0.8090  -13.6167 F   0  0  0  0  0  0  0  0  0  0  0  0
   24.9160   -0.0707  -12.9735 C   0  0  0  0  0  0  0  0  0  0  0  0
  1  2  1  6
  2  3  2  0
  2  4  2  0
  2  5  1  6
  5  6  2  0
  6  7  1  0
  7  8  2  0
  8  9  1  0
  9 10  1  0
 10 11  2  0
 11 12  1  0
 12 13  1  0
 12 14  2  0
 14 15  1  0
 15 16  1  0
 16 17  3  0
 15 18  2  0
  8 19  1  0
 19 20  2  0
 20 21  1  0
 21 22  1  1
 21 23  1  0
 23 24  1  1
 23 25  1  0
 20  5  1  0
 18 10  1  0
 25 19  1  6
M  END
$$$$
