_rank6
     RDKit          3D

 17 18  0  0  0  0  0  0  0  0999 V2000
   27.3980    0.8074  -12.0948 C   0  0  0  0  0  0  0  0  0  0  0  0
   26.2969    0.8052  -11.0399 C   0  0  1  0  0  0  0  0  0  0  0  0
   25.2112   -0.1091  -11.5186 C   0  0  0  0  0  0  0  0  0  0  0  0
   24.3677   -0.4537  -10.4049 N   0  0  0  0  0  0  0  0  0  0  0  0
   22.9814   -0.6226  -10.3936 C   0  0  0  0  0  0  0  0  0  0  0  0
   22.3669   -1.7672  -10.8822 C   0  0  0  0  0  0  0  0  0  0  0  0
   21.0050   -1.9290  -10.8685 C   0  0  0  0  0  0  0  0  0  0  0  0
   20.4584   -3.0606  -11.3550 F   0  0  0  0  0  0  0  0  0  0  0  0
   20.1711   -0.9607  -10.3673 C   0  0  0  0  0  0  0  0  0  0  0  0
   20.7452    0.1939   -9.8715 C   0  0  0  0  0  0  0  0  0  0  0  0
   19.8794    1.2180   -9.3415 C   0  0  0  0  0  0  0  0  0  0  0  0
   19.1776    2.0352   -8.9059 N   0  0  0  0  0  0  0  0  0  0  0  0
   22.1133    0.3496   -9.8884 C   0  0  0  0  0  0  0  0  0  0  0  0
   25.4469   -0.6159   -9.0754 S   0  0  2  0  0  6  0  0  0  0  0  0
   25.6727   -2.0572   -8.8172 O   0  0  0  0  0  0  0  0  0  0  0  0
   24.9876    0.1333   -7.8635 O   0  0  0  0  0  0  0  0  0  0  0  0
   26.8940    0.1748   -9.7970 C   0  0  0  0  0  0  0  0  0  0  0  0
  2  1  1  6
  2  3  1  0
  3  4  1  1
  4  5  1  0
  5  6  2  0
  6  7  1  0
  7  8  1  0
  7  9  2  0
  9 10  1  0
 10 11  1  0
 11 12  3  0
 10 13  2  0
 14  4  1  6
 14 15  2  0
 14 16  2  0
 17 14  1  1
 17  2  1  0
 13  5  1  0
M  END
$$$$
