_rank8
     RDKit          3D

 17 18  0  0  0  0  0  0  0  0999 V2000
   27.4569    0.4892  -12.1658 C   0  0  0  0  0  0  0  0  0  0  0  0
   26.3103    0.6837  -11.1796 C   0  0  1  0  0  0  0  0  0  0  0  0
   25.2559   -0.3298  -11.5034 C   0  0  0  0  0  0  0  0  0  0  0  0
   24.3673   -0.4534  -10.3783 N   0  0  0  0  0  0  0  0  0  0  0  0
   22.9836   -0.6423  -10.3895 C   0  0  0  0  0  0  0  0  0  0  0  0
   22.3977   -1.8294  -10.8065 C   0  0  0  0  0  0  0  0  0  0  0  0
   21.0382   -2.0106  -10.8152 C   0  0  0  0  0  0  0  0  0  0  0  0
   20.5199   -3.1837  -11.2293 F   0  0  0  0  0  0  0  0  0  0  0  0
   20.1785   -1.0206  -10.4092 C   0  0  0  0  0  0  0  0  0  0  0  0
   20.7237    0.1763   -9.9869 C   0  0  0  0  0  0  0  0  0  0  0  0
   19.8304    1.2236   -9.5571 C   0  0  0  0  0  0  0  0  0  0  0  0
   19.1200    2.0729   -9.2049 N   0  0  0  0  0  0  0  0  0  0  0  0
   22.0895    0.3513   -9.9807 C   0  0  0  0  0  0  0  0  0  0  0  0
   25.3883   -0.3180   -9.0006 S   0  0  2  0  0  6  0  0  0  0  0  0
   25.6166   -1.6707   -8.4411 O   0  0  0  0  0  0  0  0  0  0  0  0
   24.8685    0.6560   -7.9896 O   0  0  0  0  0  0  0  0  0  0  0  0
   26.8580    0.3341   -9.8097 C   0  0  0  0  0  0  0  0  0  0  0  0
  2  1  1  6
  2  3  1  0
  3  4  1  1
  4  5  1  0
  5  6  2  0
  6  7  1  0
  7  8  1  0
  7  9  2  0
  9 10  1  0
 10 11  1  0
 11 12  3  0
 10 13  2  0
 14  4  1  6
 14 15  2  0
 14 16  2  0
 17 14  1  1
 17  2  1  0
 13  5  1  0
M  END
$$$$
