_rank12
     RDKit          3D

 17 18  0  0  0  0  0  0  0  0999 V2000
   28.3898    0.6098   -8.6232 C   0  0  0  0  0  0  0  0  0  0  0  0
   27.3911   -0.2778   -9.3581 C   0  0  1  0  0  0  0  0  0  0  0  0
   26.0686    0.4257   -9.3529 C   0  0  0  0  0  0  0  0  0  0  0  0
   25.2242   -0.1622  -10.3588 N   0  0  0  0  0  0  0  0  0  0  0  0
   23.8488   -0.3970  -10.3000 C   0  0  0  0  0  0  0  0  0  0  0  0
   23.0158    0.2761   -9.4170 C   0  0  0  0  0  0  0  0  0  0  0  0
   21.6653    0.0426   -9.3632 C   0  0  0  0  0  0  0  0  0  0  0  0
   20.9007    0.7240   -8.4873 F   0  0  0  0  0  0  0  0  0  0  0  0
   21.0613   -0.8756  -10.1854 C   0  0  0  0  0  0  0  0  0  0  0  0
   21.8572   -1.5664  -11.0784 C   0  0  0  0  0  0  0  0  0  0  0  0
   21.2338   -2.5330  -11.9480 C   0  0  0  0  0  0  0  0  0  0  0  0
   20.7410   -3.3194  -12.6473 N   0  0  0  0  0  0  0  0  0  0  0  0
   23.2124   -1.3269  -11.1271 C   0  0  0  0  0  0  0  0  0  0  0  0
   26.2857   -0.5167  -11.6651 S   0  0  2  0  0  6  0  0  0  0  0  0
   26.1131    0.5155  -12.7138 O   0  0  0  0  0  0  0  0  0  0  0  0
   26.1209   -1.9121  -12.1813 O   0  0  0  0  0  0  0  0  0  0  0  0
   27.8547   -0.3435  -10.8001 C   0  0  0  0  0  0  0  0  0  0  0  0
  2  1  1  1
  2  3  1  0
  3  4  1  1
  4  5  1  0
  5  6  2  0
  6  7  1  0
  7  8  1  0
  7  9  2  0
  9 10  1  0
 10 11  1  0
 11 12  3  0
 10 13  2  0
 14  4  1  1
 14 15  2  0
 14 16  2  0
 17 14  1  1
 17  2  1  0
 13  5  1  0
M  END
$$$$
