_rank16
     RDKit          3D

 17 18  0  0  0  0  0  0  0  0999 V2000
   28.4159    1.5460  -11.1910 C   0  0  0  0  0  0  0  0  0  0  0  0
   27.3473    1.1437  -10.1804 C   0  0  1  0  0  0  0  0  0  0  0  0
   26.2142    0.5245  -10.9397 C   0  0  0  0  0  0  0  0  0  0  0  0
   25.3917   -0.2206  -10.0238 N   0  0  0  0  0  0  0  0  0  0  0  0
   24.0009   -0.3484  -10.0226 C   0  0  0  0  0  0  0  0  0  0  0  0
   23.1690    0.5748   -9.4046 C   0  0  0  0  0  0  0  0  0  0  0  0
   21.8036    0.4454   -9.4065 C   0  0  0  0  0  0  0  0  0  0  0  0
   21.0407    1.3707   -8.7917 F   0  0  0  0  0  0  0  0  0  0  0  0
   21.1826   -0.6115  -10.0241 C   0  0  0  0  0  0  0  0  0  0  0  0
   21.9769   -1.5520  -10.6506 C   0  0  0  0  0  0  0  0  0  0  0  0
   21.3359   -2.6664  -11.3037 C   0  0  0  0  0  0  0  0  0  0  0  0
   20.8302   -3.5699  -11.8311 N   0  0  0  0  0  0  0  0  0  0  0  0
   23.3472   -1.4159  -10.6448 C   0  0  0  0  0  0  0  0  0  0  0  0
   26.5030   -0.9291   -8.9185 S   0  0  2  0  0  6  0  0  0  0  0  0
   26.6819   -2.3569   -9.2711 O   0  0  0  0  0  0  0  0  0  0  0  0
   26.1084   -0.7217   -7.4895 O   0  0  0  0  0  0  0  0  0  0  0  0
   27.9568    0.0525   -9.3221 C   0  0  0  0  0  0  0  0  0  0  0  0
  2  1  1  6
  2  3  1  0
  3  4  1  1
  4  5  1  0
  5  6  2  0
  6  7  1  0
  7  8  1  0
  7  9  2  0
  9 10  1  0
 10 11  1  0
 11 12  3  0
 10 13  2  0
 14  4  1  6
 14 15  2  0
 14 16  2  0
 17 14  1  1
 17  2  1  0
 13  5  1  0
M  END
$$$$
