_rank9
     RDKit          3D

 17 18  0  0  0  0  0  0  0  0999 V2000
   27.6076    0.3411  -12.0543 C   0  0  0  0  0  0  0  0  0  0  0  0
   26.4673    0.6001  -11.0757 C   0  0  1  0  0  0  0  0  0  0  0  0
   25.3688   -0.3681  -11.3916 C   0  0  0  0  0  0  0  0  0  0  0  0
   24.4712   -0.4368  -10.2691 N   0  0  0  0  0  0  0  0  0  0  0  0
   23.0803   -0.5624  -10.2841 C   0  0  0  0  0  0  0  0  0  0  0  0
   22.4410   -1.7060  -10.7422 C   0  0  0  0  0  0  0  0  0  0  0  0
   21.0747   -1.8250  -10.7545 C   0  0  0  0  0  0  0  0  0  0  0  0
   20.5036   -2.9577  -11.2095 F   0  0  0  0  0  0  0  0  0  0  0  0
   20.2609   -0.8124  -10.3113 C   0  0  0  0  0  0  0  0  0  0  0  0
   20.8600    0.3427   -9.8474 C   0  0  0  0  0  0  0  0  0  0  0  0
   20.0154    1.4131   -9.3783 C   0  0  0  0  0  0  0  0  0  0  0  0
   19.3261    2.2675   -8.9975 N   0  0  0  0  0  0  0  0  0  0  0  0
   22.2324    0.4554   -9.8379 C   0  0  0  0  0  0  0  0  0  0  0  0
   25.4919   -0.3310   -8.8886 S   0  0  2  0  0  6  0  0  0  0  0  0
   25.6559   -1.6856   -8.3115 O   0  0  0  0  0  0  0  0  0  0  0  0
   25.0134    0.6783   -7.8921 O   0  0  0  0  0  0  0  0  0  0  0  0
   26.9931    0.2430   -9.6992 C   0  0  0  0  0  0  0  0  0  0  0  0
  2  1  1  6
  2  3  1  0
  3  4  1  1
  4  5  1  0
  5  6  2  0
  6  7  1  0
  7  8  1  0
  7  9  2  0
  9 10  1  0
 10 11  1  0
 11 12  3  0
 10 13  2  0
 14  4  1  6
 14 15  2  0
 14 16  2  0
 17 14  1  1
 17  2  1  0
 13  5  1  0
M  END
$$$$
