_rank3
     RDKit          3D

 17 18  0  0  0  0  0  0  0  0999 V2000
   27.3493    0.9279  -12.2293 C   0  0  0  0  0  0  0  0  0  0  0  0
   26.2627    0.9071  -11.1597 C   0  0  1  0  0  0  0  0  0  0  0  0
   25.1961   -0.0413  -11.6143 C   0  0  0  0  0  0  0  0  0  0  0  0
   24.3770   -0.3967  -10.4859 N   0  0  0  0  0  0  0  0  0  0  0  0
   22.9961   -0.6030  -10.4541 C   0  0  0  0  0  0  0  0  0  0  0  0
   22.4201   -1.8322  -10.7437 C   0  0  0  0  0  0  0  0  0  0  0  0
   21.0633   -2.0302  -10.7106 C   0  0  0  0  0  0  0  0  0  0  0  0
   20.5548   -3.2442  -10.9999 F   0  0  0  0  0  0  0  0  0  0  0  0
   20.1966   -1.0162  -10.3872 C   0  0  0  0  0  0  0  0  0  0  0  0
   20.7317    0.2228  -10.0925 C   0  0  0  0  0  0  0  0  0  0  0  0
   19.8311    1.2957   -9.7504 C   0  0  0  0  0  0  0  0  0  0  0  0
   19.1075    2.1581   -9.4628 N   0  0  0  0  0  0  0  0  0  0  0  0
   22.0949    0.4145  -10.1276 C   0  0  0  0  0  0  0  0  0  0  0  0
   25.4777   -0.5155   -9.1694 S   0  0  2  0  0  6  0  0  0  0  0  0
   25.7460   -1.9473   -8.8994 O   0  0  0  0  0  0  0  0  0  0  0  0
   25.0142    0.2339   -7.9592 O   0  0  0  0  0  0  0  0  0  0  0  0
   26.8931    0.3064   -9.9186 C   0  0  0  0  0  0  0  0  0  0  0  0
  2  1  1  6
  2  3  1  0
  3  4  1  1
  4  5  1  0
  5  6  2  0
  6  7  1  0
  7  8  1  0
  7  9  2  0
  9 10  1  0
 10 11  1  0
 11 12  3  0
 10 13  2  0
 14  4  1  6
 14 15  2  0
 14 16  2  0
 17 14  1  1
 17  2  1  0
 13  5  1  0
M  END
$$$$
