_rank7
     RDKit          3D

 25 27  0  0  0  0  0  0  0  0999 V2000
   27.8908    0.9339   -7.5016 C   0  0  0  0  0  0  0  0  0  0  0  0
   27.6394   -0.6401   -8.3190 S   0  0  2  0  0  6  0  0  0  0  0  0
   27.4931   -1.7350   -7.3104 O   0  0  0  0  0  0  0  0  0  0  0  0
   28.8899   -0.9423   -9.0984 O   0  0  0  0  0  0  0  0  0  0  0  0
   26.2342   -0.5785   -9.3269 C   0  0  0  0  0  0  0  0  0  0  0  0
   25.0376   -1.0499   -8.8309 C   0  0  0  0  0  0  0  0  0  0  0  0
   23.8759   -1.0414   -9.5541 C   0  0  0  0  0  0  0  0  0  0  0  0
   23.9239   -0.5367  -10.8296 C   0  0  0  0  0  0  0  0  0  0  0  0
   22.8033   -0.4872  -11.6338 O   0  0  0  0  0  0  0  0  0  0  0  0
   21.5298   -0.7700  -11.1441 C   0  0  0  0  0  0  0  0  0  0  0  0
   20.9243   -2.0007  -11.3158 C   0  0  0  0  0  0  0  0  0  0  0  0
   19.6565   -2.2528  -10.8173 C   0  0  0  0  0  0  0  0  0  0  0  0
   19.0649   -3.4688  -10.9900 F   0  0  0  0  0  0  0  0  0  0  0  0
   18.9545   -1.2871  -10.1334 C   0  0  0  0  0  0  0  0  0  0  0  0
   19.5508   -0.0461   -9.9535 C   0  0  0  0  0  0  0  0  0  0  0  0
   18.8624    0.9892   -9.2493 C   0  0  0  0  0  0  0  0  0  0  0  0
   18.3104    1.8538   -8.6769 N   0  0  0  0  0  0  0  0  0  0  0  0
   20.8198    0.1989  -10.4553 C   0  0  0  0  0  0  0  0  0  0  0  0
   25.1089   -0.0467  -11.3805 C   0  0  0  0  0  0  0  0  0  0  0  0
   26.2707   -0.0685  -10.6229 C   0  0  0  0  0  0  0  0  0  0  0  0
   27.3872    0.5016  -11.4245 C   0  0  2  0  0  0  0  0  0  0  0  0
   27.4682    1.8872  -11.2963 O   0  0  0  0  0  0  0  0  0  0  0  0
   26.8950    0.2397  -12.8535 C   0  0  2  0  0  0  0  0  0  0  0  0
   27.5489    1.0981  -13.6879 F   0  0  0  0  0  0  0  0  0  0  0  0
   25.4227    0.5405  -12.7095 C   0  0  0  0  0  0  0  0  0  0  0  0
  1  2  1  1
  2  3  2  0
  2  4  2  0
  2  5  1  6
  5  6  2  0
  6  7  1  0
  7  8  2  0
  8  9  1  0
  9 10  1  0
 10 11  2  0
 11 12  1  0
 12 13  1  0
 12 14  2  0
 14 15  1  0
 15 16  1  0
 16 17  3  0
 15 18  2  0
  8 19  1  0
 19 20  2  0
 20 21  1  0
 21 22  1  6
 21 23  1  0
 23 24  1  6
 23 25  1  0
 20  5  1  0
 18 10  1  0
 25 19  1  1
M  END
$$$$
