_rank4
     RDKit          3D

 25 27  0  0  0  0  0  0  0  0999 V2000
   28.6523    0.7654   -8.7194 C   0  0  0  0  0  0  0  0  0  0  0  0
   27.7710   -0.7861   -8.8772 S   0  0  2  0  0  6  0  0  0  0  0  0
   27.4540   -1.3465   -7.5270 O   0  0  0  0  0  0  0  0  0  0  0  0
   28.7047   -1.7640   -9.5365 O   0  0  0  0  0  0  0  0  0  0  0  0
   26.3104   -0.5612   -9.7774 C   0  0  0  0  0  0  0  0  0  0  0  0
   25.1215   -1.0057   -9.2397 C   0  0  0  0  0  0  0  0  0  0  0  0
   23.9185   -0.8713   -9.8779 C   0  0  0  0  0  0  0  0  0  0  0  0
   23.9153   -0.2638  -11.1087 C   0  0  0  0  0  0  0  0  0  0  0  0
   22.7506   -0.0840  -11.8270 O   0  0  0  0  0  0  0  0  0  0  0  0
   21.5062   -0.4533  -11.3205 C   0  0  0  0  0  0  0  0  0  0  0  0
   21.0178   -1.7429  -11.4167 C   0  0  0  0  0  0  0  0  0  0  0  0
   19.7762   -2.0806  -10.9033 C   0  0  0  0  0  0  0  0  0  0  0  0
   19.3004   -3.3545  -11.0015 F   0  0  0  0  0  0  0  0  0  0  0  0
   18.9845   -1.1445  -10.2790 C   0  0  0  0  0  0  0  0  0  0  0  0
   19.4625    0.1551  -10.1752 C   0  0  0  0  0  0  0  0  0  0  0  0
   18.6778    1.1629   -9.5350 C   0  0  0  0  0  0  0  0  0  0  0  0
   18.0405    2.0055   -9.0213 N   0  0  0  0  0  0  0  0  0  0  0  0
   20.7060    0.4856  -10.6915 C   0  0  0  0  0  0  0  0  0  0  0  0
   25.0903    0.2044  -11.6987 C   0  0  0  0  0  0  0  0  0  0  0  0
   26.2949    0.0539  -11.0274 C   0  0  0  0  0  0  0  0  0  0  0  0
   27.3904    0.6269  -11.8554 C   0  0  2  0  0  0  0  0  0  0  0  0
   27.5640    1.9900  -11.6215 O   0  0  0  0  0  0  0  0  0  0  0  0
   26.7924    0.5148  -13.2635 C   0  0  2  0  0  0  0  0  0  0  0  0
   27.4427    1.4031  -14.0689 F   0  0  0  0  0  0  0  0  0  0  0  0
   25.3535    0.8838  -12.9944 C   0  0  0  0  0  0  0  0  0  0  0  0
  1  2  1  1
  2  3  2  0
  2  4  2  0
  2  5  1  6
  5  6  2  0
  6  7  1  0
  7  8  2  0
  8  9  1  0
  9 10  1  0
 10 11  2  0
 11 12  1  0
 12 13  1  0
 12 14  2  0
 14 15  1  0
 15 16  1  0
 16 17  3  0
 15 18  2  0
  8 19  1  0
 19 20  2  0
 20 21  1  0
 21 22  1  1
 21 23  1  0
 23 24  1  6
 23 25  1  0
 20  5  1  0
 18 10  1  0
 25 19  1  1
M  END
$$$$
