_rank8
     RDKit          3D

 25 27  0  0  0  0  0  0  0  0999 V2000
   28.0984    0.9218   -7.9766 C   0  0  0  0  0  0  0  0  0  0  0  0
   27.6554   -0.6035   -8.8048 S   0  0  2  0  0  6  0  0  0  0  0  0
   27.4916   -1.7092   -7.8108 O   0  0  0  0  0  0  0  0  0  0  0  0
   28.8152   -0.9872   -9.6825 O   0  0  0  0  0  0  0  0  0  0  0  0
   26.1901   -0.3988   -9.7023 C   0  0  0  0  0  0  0  0  0  0  0  0
   25.0001   -0.8022   -9.1355 C   0  0  0  0  0  0  0  0  0  0  0  0
   23.7935   -0.6798   -9.7693 C   0  0  0  0  0  0  0  0  0  0  0  0
   23.7877   -0.1279  -11.0260 C   0  0  0  0  0  0  0  0  0  0  0  0
   22.6192    0.0356  -11.7422 O   0  0  0  0  0  0  0  0  0  0  0  0
   21.3677   -0.2012  -11.1774 C   0  0  0  0  0  0  0  0  0  0  0  0
   20.6779    0.7642  -10.4682 C   0  0  0  0  0  0  0  0  0  0  0  0
   19.4344    0.4995   -9.9178 C   0  0  0  0  0  0  0  0  0  0  0  0
   18.7593    1.4562   -9.2195 F   0  0  0  0  0  0  0  0  0  0  0  0
   18.8413   -0.7341  -10.0573 C   0  0  0  0  0  0  0  0  0  0  0  0
   19.5229   -1.7135  -10.7673 C   0  0  0  0  0  0  0  0  0  0  0  0
   18.9483   -3.0102  -10.9403 C   0  0  0  0  0  0  0  0  0  0  0  0
   18.4581   -4.0674  -11.0879 N   0  0  0  0  0  0  0  0  0  0  0  0
   20.7670   -1.4412  -11.3152 C   0  0  0  0  0  0  0  0  0  0  0  0
   24.9637    0.2970  -11.6460 C   0  0  0  0  0  0  0  0  0  0  0  0
   26.1719    0.1599  -10.9784 C   0  0  0  0  0  0  0  0  0  0  0  0
   27.2678    0.6801  -11.8401 C   0  0  2  0  0  0  0  0  0  0  0  0
   27.4619    2.0497  -11.6691 O   0  0  0  0  0  0  0  0  0  0  0  0
   26.6560    0.5134  -13.2369 C   0  0  2  0  0  0  0  0  0  0  0  0
   27.3112    1.3557  -14.0867 F   0  0  0  0  0  0  0  0  0  0  0  0
   25.2247    0.9140  -12.9729 C   0  0  0  0  0  0  0  0  0  0  0  0
  1  2  1  1
  2  3  2  0
  2  4  2  0
  2  5  1  6
  5  6  2  0
  6  7  1  0
  7  8  2  0
  8  9  1  0
  9 10  1  0
 10 11  2  0
 11 12  1  0
 12 13  1  0
 12 14  2  0
 14 15  1  0
 15 16  1  0
 16 17  3  0
 15 18  2  0
  8 19  1  0
 19 20  2  0
 20 21  1  0
 21 22  1  1
 21 23  1  0
 23 24  1  6
 23 25  1  0
 20  5  1  0
 18 10  1  0
 25 19  1  1
M  END
$$$$
