_rank11
     RDKit          3D

 25 27  0  0  0  0  0  0  0  0999 V2000
   27.5848   -1.1523   -7.3854 C   0  0  0  0  0  0  0  0  0  0  0  0
   27.8459   -0.3557   -8.9684 S   0  0  2  0  0  6  0  0  0  0  0  0
   28.8784   -1.0934   -9.7604 O   0  0  0  0  0  0  0  0  0  0  0  0
   28.4149    1.0091   -8.6921 O   0  0  0  0  0  0  0  0  0  0  0  0
   26.3639   -0.2832   -9.8587 C   0  0  0  0  0  0  0  0  0  0  0  0
   25.2104   -0.7574   -9.2716 C   0  0  0  0  0  0  0  0  0  0  0  0
   23.9940   -0.7409   -9.8984 C   0  0  0  0  0  0  0  0  0  0  0  0
   23.9397   -0.2248  -11.1690 C   0  0  0  0  0  0  0  0  0  0  0  0
   22.7578   -0.1667  -11.8795 O   0  0  0  0  0  0  0  0  0  0  0  0
   21.5331   -0.4994  -11.3040 C   0  0  0  0  0  0  0  0  0  0  0  0
   21.0069   -1.7762  -11.3633 C   0  0  0  0  0  0  0  0  0  0  0  0
   19.7863   -2.0774  -10.7814 C   0  0  0  0  0  0  0  0  0  0  0  0
   19.2729   -3.3388  -10.8434 F   0  0  0  0  0  0  0  0  0  0  0  0
   19.0539   -1.1163  -10.1235 C   0  0  0  0  0  0  0  0  0  0  0  0
   19.5705    0.1709  -10.0562 C   0  0  0  0  0  0  0  0  0  0  0  0
   18.8478    1.2035   -9.3833 C   0  0  0  0  0  0  0  0  0  0  0  0
   18.2365    2.0463   -8.8394 N   0  0  0  0  0  0  0  0  0  0  0  0
   20.7927    0.4648  -10.6410 C   0  0  0  0  0  0  0  0  0  0  0  0
   25.0772    0.2684  -11.8097 C   0  0  0  0  0  0  0  0  0  0  0  0
   26.2965    0.2383  -11.1489 C   0  0  0  0  0  0  0  0  0  0  0  0
   27.3456    0.8141  -12.0331 C   0  0  2  0  0  0  0  0  0  0  0  0
   27.4396    2.1984  -11.8998 O   0  0  0  0  0  0  0  0  0  0  0  0
   26.7389    0.5656  -13.4199 C   0  0  2  0  0  0  0  0  0  0  0  0
   27.3249    1.4306  -14.2969 F   0  0  0  0  0  0  0  0  0  0  0  0
   25.2837    0.8671  -13.1546 C   0  0  0  0  0  0  0  0  0  0  0  0
  1  2  1  1
  2  3  2  0
  2  4  2  0
  2  5  1  6
  5  6  2  0
  6  7  1  0
  7  8  2  0
  8  9  1  0
  9 10  1  0
 10 11  2  0
 11 12  1  0
 12 13  1  0
 12 14  2  0
 14 15  1  0
 15 16  1  0
 16 17  3  0
 15 18  2  0
  8 19  1  0
 19 20  2  0
 20 21  1  0
 21 22  1  1
 21 23  1  0
 23 24  1  6
 23 25  1  0
 20  5  1  0
 18 10  1  0
 25 19  1  1
M  END
$$$$
