_rank3
     RDKit          3D

 25 27  0  0  0  0  0  0  0  0999 V2000
   28.5135    0.8833   -8.3896 C   0  0  0  0  0  0  0  0  0  0  0  0
   27.6775   -0.6961   -8.5128 S   0  0  2  0  0  6  0  0  0  0  0  0
   27.3339   -1.2130   -7.1519 O   0  0  0  0  0  0  0  0  0  0  0  0
   28.6555   -1.6730   -9.1059 O   0  0  0  0  0  0  0  0  0  0  0  0
   26.2397   -0.5447   -9.4638 C   0  0  0  0  0  0  0  0  0  0  0  0
   25.0318   -0.9067   -8.9069 C   0  0  0  0  0  0  0  0  0  0  0  0
   23.8445   -0.8213   -9.5820 C   0  0  0  0  0  0  0  0  0  0  0  0
   23.8777   -0.3516  -10.8713 C   0  0  0  0  0  0  0  0  0  0  0  0
   22.7312   -0.2306  -11.6301 O   0  0  0  0  0  0  0  0  0  0  0  0
   21.4805   -0.6053  -11.1433 C   0  0  0  0  0  0  0  0  0  0  0  0
   20.9937   -1.8938  -11.2594 C   0  0  0  0  0  0  0  0  0  0  0  0
   19.7457   -2.2370  -10.7654 C   0  0  0  0  0  0  0  0  0  0  0  0
   19.2715   -3.5097  -10.8832 F   0  0  0  0  0  0  0  0  0  0  0  0
   18.9460   -1.3076  -10.1412 C   0  0  0  0  0  0  0  0  0  0  0  0
   19.4225   -0.0092  -10.0175 C   0  0  0  0  0  0  0  0  0  0  0  0
   18.6295    0.9917   -9.3765 C   0  0  0  0  0  0  0  0  0  0  0  0
   17.9634    1.8004   -8.8454 N   0  0  0  0  0  0  0  0  0  0  0  0
   20.6724    0.3269  -10.5145 C   0  0  0  0  0  0  0  0  0  0  0  0
   25.0732    0.0285  -11.4830 C   0  0  0  0  0  0  0  0  0  0  0  0
   26.2611   -0.0694  -10.7732 C   0  0  0  0  0  0  0  0  0  0  0  0
   27.3840    0.3904  -11.6345 C   0  0  2  0  0  0  0  0  0  0  0  0
   27.5803    1.7675  -11.5464 O   0  0  0  0  0  0  0  0  0  0  0  0
   26.8117    0.1360  -13.0348 C   0  0  2  0  0  0  0  0  0  0  0  0
   27.4954    0.9195  -13.9177 F   0  0  0  0  0  0  0  0  0  0  0  0
   25.3755    0.5577  -12.8387 C   0  0  0  0  0  0  0  0  0  0  0  0
  1  2  1  1
  2  3  2  0
  2  4  2  0
  2  5  1  6
  5  6  2  0
  6  7  1  0
  7  8  2  0
  8  9  1  0
  9 10  1  0
 10 11  2  0
 11 12  1  0
 12 13  1  0
 12 14  2  0
 14 15  1  0
 15 16  1  0
 16 17  3  0
 15 18  2  0
  8 19  1  0
 19 20  2  0
 20 21  1  0
 21 22  1  6
 21 23  1  0
 23 24  1  6
 23 25  1  0
 20  5  1  0
 18 10  1  0
 25 19  1  1
M  END
$$$$
