_rank5
     RDKit          3D

 25 27  0  0  0  0  0  0  0  0999 V2000
   28.7251   -1.6569   -8.6697 C   0  0  0  0  0  0  0  0  0  0  0  0
   27.7056   -0.1896   -8.5412 S   0  0  2  0  0  6  0  0  0  0  0  0
   28.4791    1.0219   -8.9552 O   0  0  0  0  0  0  0  0  0  0  0  0
   27.3709   -0.0055   -7.0863 O   0  0  0  0  0  0  0  0  0  0  0  0
   26.2922   -0.3491   -9.5268 C   0  0  0  0  0  0  0  0  0  0  0  0
   25.1361   -0.8397   -8.9587 C   0  0  0  0  0  0  0  0  0  0  0  0
   23.9715   -1.0003   -9.6591 C   0  0  0  0  0  0  0  0  0  0  0  0
   23.9739   -0.6517  -10.9866 C   0  0  0  0  0  0  0  0  0  0  0  0
   22.8468   -0.7786  -11.7730 O   0  0  0  0  0  0  0  0  0  0  0  0
   21.5816   -0.9760  -11.2238 C   0  0  0  0  0  0  0  0  0  0  0  0
   20.9050   -2.1768  -11.3291 C   0  0  0  0  0  0  0  0  0  0  0  0
   19.6474   -2.3435  -10.7724 C   0  0  0  0  0  0  0  0  0  0  0  0
   18.9855   -3.5305  -10.8798 F   0  0  0  0  0  0  0  0  0  0  0  0
   19.0266   -1.3197  -10.0945 C   0  0  0  0  0  0  0  0  0  0  0  0
   19.6948   -0.1078   -9.9810 C   0  0  0  0  0  0  0  0  0  0  0  0
   19.0921    0.9853   -9.2857 C   0  0  0  0  0  0  0  0  0  0  0  0
   18.5881    1.8708   -8.7011 N   0  0  0  0  0  0  0  0  0  0  0  0
   20.9531    0.0516  -10.5408 C   0  0  0  0  0  0  0  0  0  0  0  0
   25.1168   -0.1502  -11.6112 C   0  0  0  0  0  0  0  0  0  0  0  0
   26.2828    0.0014  -10.8751 C   0  0  0  0  0  0  0  0  0  0  0  0
   27.3497    0.5472  -11.7571 C   0  0  2  0  0  0  0  0  0  0  0  0
   27.3324    1.9403  -11.7978 O   0  0  0  0  0  0  0  0  0  0  0  0
   26.8671    0.0802  -13.1362 C   0  0  2  0  0  0  0  0  0  0  0  0
   27.4518    0.8750  -14.0781 F   0  0  0  0  0  0  0  0  0  0  0  0
   25.3781    0.2923  -13.0061 C   0  0  0  0  0  0  0  0  0  0  0  0
  1  2  1  1
  2  3  2  0
  2  4  2  0
  2  5  1  6
  5  6  2  0
  6  7  1  0
  7  8  2  0
  8  9  1  0
  9 10  1  0
 10 11  2  0
 11 12  1  0
 12 13  1  0
 12 14  2  0
 14 15  1  0
 15 16  1  0
 16 17  3  0
 15 18  2  0
  8 19  1  0
 19 20  2  0
 20 21  1  0
 21 22  1  6
 21 23  1  0
 23 24  1  6
 23 25  1  0
 20  5  1  0
 18 10  1  0
 25 19  1  1
M  END
$$$$
