_rank6
     RDKit          3D

 25 27  0  0  0  0  0  0  0  0999 V2000
   27.4954   -1.0266   -7.0752 C   0  0  0  0  0  0  0  0  0  0  0  0
   27.8317   -0.5377   -8.7653 S   0  0  2  0  0  6  0  0  0  0  0  0
   28.7185   -1.5404   -9.4327 O   0  0  0  0  0  0  0  0  0  0  0  0
   28.6083    0.7494   -8.7108 O   0  0  0  0  0  0  0  0  0  0  0  0
   26.3543   -0.3780   -9.6521 C   0  0  0  0  0  0  0  0  0  0  0  0
   25.1769   -0.7881   -9.0640 C   0  0  0  0  0  0  0  0  0  0  0  0
   23.9622   -0.7003   -9.6880 C   0  0  0  0  0  0  0  0  0  0  0  0
   23.9346   -0.1775  -10.9568 C   0  0  0  0  0  0  0  0  0  0  0  0
   22.7565   -0.0499  -11.6644 O   0  0  0  0  0  0  0  0  0  0  0  0
   21.5275   -0.4264  -11.1265 C   0  0  0  0  0  0  0  0  0  0  0  0
   21.0636   -1.7278  -11.1729 C   0  0  0  0  0  0  0  0  0  0  0  0
   19.8369   -2.0725  -10.6292 C   0  0  0  0  0  0  0  0  0  0  0  0
   19.3852   -3.3578  -10.6783 F   0  0  0  0  0  0  0  0  0  0  0  0
   19.0362   -1.1318  -10.0234 C   0  0  0  0  0  0  0  0  0  0  0  0
   19.4897    0.1795   -9.9696 C   0  0  0  0  0  0  0  0  0  0  0  0
   18.6948    1.1924   -9.3502 C   0  0  0  0  0  0  0  0  0  0  0  0
   18.0558    2.0389   -8.8453 N   0  0  0  0  0  0  0  0  0  0  0  0
   20.7184    0.5170  -10.5159 C   0  0  0  0  0  0  0  0  0  0  0  0
   25.0970    0.2526  -11.5983 C   0  0  0  0  0  0  0  0  0  0  0  0
   26.3140    0.1510  -10.9403 C   0  0  0  0  0  0  0  0  0  0  0  0
   27.3923    0.6695  -11.8249 C   0  0  2  0  0  0  0  0  0  0  0  0
   27.5650    2.0457  -11.6871 O   0  0  0  0  0  0  0  0  0  0  0  0
   26.7696    0.4606  -13.2112 C   0  0  2  0  0  0  0  0  0  0  0  0
   27.4020    1.2941  -14.0866 F   0  0  0  0  0  0  0  0  0  0  0  0
   25.3344    0.8433  -12.9416 C   0  0  0  0  0  0  0  0  0  0  0  0
  1  2  1  1
  2  3  2  0
  2  4  2  0
  2  5  1  6
  5  6  2  0
  6  7  1  0
  7  8  2  0
  8  9  1  0
  9 10  1  0
 10 11  2  0
 11 12  1  0
 12 13  1  0
 12 14  2  0
 14 15  1  0
 15 16  1  0
 16 17  3  0
 15 18  2  0
  8 19  1  0
 19 20  2  0
 20 21  1  0
 21 22  1  1
 21 23  1  0
 23 24  1  6
 23 25  1  0
 20  5  1  0
 18 10  1  0
 25 19  1  1
M  END
$$$$
