_rank3
     RDKit          3D

 26 28  0  0  0  0  0  0  0  0999 V2000
   28.9827    0.9415   -9.0221 C   0  0  0  0  0  0  0  0  0  0  0  0
   27.8826   -0.3734   -8.5784 S   0  0  2  0  0  6  0  0  0  0  0  0
   27.5781   -0.2950   -7.1032 O   0  0  0  0  0  0  0  0  0  0  0  0
   28.4927   -1.7111   -8.8365 O   0  0  0  0  0  0  0  0  0  0  0  0
   26.3744   -0.2865   -9.4767 C   0  0  0  0  0  0  0  0  0  0  0  0
   25.1873   -0.6885   -8.8948 C   0  0  0  0  0  0  0  0  0  0  0  0
   24.0128   -0.6055   -9.6362 C   0  0  0  0  0  0  0  0  0  0  0  0
   23.9927   -0.1344  -10.9346 C   0  0  0  0  0  0  0  0  0  0  0  0
   22.7892   -0.0989  -11.5629 O   0  0  0  0  0  0  0  0  0  0  0  0
   21.5298   -0.2733  -11.1020 C   0  0  0  0  0  0  0  0  0  0  0  0
   20.9528   -1.5370  -11.2838 C   0  0  0  0  0  0  0  0  0  0  0  0
   19.6926   -1.8345  -10.8627 C   0  0  0  0  0  0  0  0  0  0  0  0
   19.1685   -3.0891  -11.0632 F   0  0  0  0  0  0  0  0  0  0  0  0
   18.9240   -0.8805  -10.2288 C   0  0  0  0  0  0  0  0  0  0  0  0
   19.4546    0.3751  -10.0305 C   0  0  0  0  0  0  0  0  0  0  0  0
   18.6353    1.3471   -9.3696 C   0  0  0  0  0  0  0  0  0  0  0  0
   17.9854    2.1317   -8.8207 N   0  0  0  0  0  0  0  0  0  0  0  0
   20.7341    0.6532  -10.4658 C   0  0  0  0  0  0  0  0  0  0  0  0
   25.2133    0.2535  -11.4629 C   0  0  0  0  0  0  0  0  0  0  0  0
   26.4019    0.1891  -10.7676 C   0  0  0  0  0  0  0  0  0  0  0  0
   27.5223    0.6791  -11.6571 C   0  0  2  0  0  0  0  0  0  0  0  0
   27.5700    2.0504  -11.6089 O   0  0  0  0  0  0  0  0  0  0  0  0
   26.9296    0.2376  -13.0102 C   0  0  2  0  0  0  0  0  0  0  0  0
   27.5594    0.8163  -14.0600 F   0  0  0  0  0  0  0  0  0  0  0  0
   25.5101    0.7884  -12.7977 C   0  0  2  0  0  0  0  0  0  0  0  0
   25.6407    2.1771  -12.6692 F   0  0  0  0  0  0  0  0  0  0  0  0
  1  2  1  6
  2  3  2  0
  2  4  2  0
  2  5  1  6
  5  6  2  0
  6  7  1  0
  7  8  2  0
  8  9  1  0
  9 10  1  0
 10 11  2  0
 11 12  1  0
 12 13  1  0
 12 14  2  0
 14 15  1  0
 15 16  1  0
 16 17  3  0
 15 18  2  0
  8 19  1  0
 19 20  2  0
 20 21  1  0
 21 22  1  6
 21 23  1  0
 23 24  1  6
 23 25  1  0
 25 26  1  1
 20  5  1  0
 18 10  1  0
 25 19  1  0
M  END
$$$$
