_rank12
     RDKit          3D

 26 28  0  0  0  0  0  0  0  0999 V2000
   28.4532   -2.1717   -8.7479 C   0  0  0  0  0  0  0  0  0  0  0  0
   27.7707   -0.5391   -8.6776 S   0  0  2  0  0  6  0  0  0  0  0  0
   28.7522    0.4397   -9.2721 O   0  0  0  0  0  0  0  0  0  0  0  0
   27.5121   -0.1116   -7.2710 O   0  0  0  0  0  0  0  0  0  0  0  0
   26.2547   -0.4328   -9.5605 C   0  0  0  0  0  0  0  0  0  0  0  0
   25.0721   -0.8443   -8.9759 C   0  0  0  0  0  0  0  0  0  0  0  0
   23.8912   -0.7454   -9.7051 C   0  0  0  0  0  0  0  0  0  0  0  0
   23.8604   -0.2495  -10.9940 C   0  0  0  0  0  0  0  0  0  0  0  0
   22.6514   -0.2002  -11.6108 O   0  0  0  0  0  0  0  0  0  0  0  0
   21.4019   -0.4537  -11.1598 C   0  0  0  0  0  0  0  0  0  0  0  0
   20.7034    0.6140  -10.5810 C   0  0  0  0  0  0  0  0  0  0  0  0
   19.4396    0.4833  -10.0916 C   0  0  0  0  0  0  0  0  0  0  0  0
   18.7938    1.5598   -9.5323 F   0  0  0  0  0  0  0  0  0  0  0  0
   18.7895   -0.7319  -10.1503 C   0  0  0  0  0  0  0  0  0  0  0  0
   19.4417   -1.8072  -10.7120 C   0  0  0  0  0  0  0  0  0  0  0  0
   18.7439   -3.0577  -10.7604 C   0  0  0  0  0  0  0  0  0  0  0  0
   18.1971   -4.0768  -10.8022 N   0  0  0  0  0  0  0  0  0  0  0  0
   20.7222   -1.6506  -11.2015 C   0  0  0  0  0  0  0  0  0  0  0  0
   25.0768    0.1468  -11.5256 C   0  0  0  0  0  0  0  0  0  0  0  0
   26.2715    0.0673  -10.8423 C   0  0  0  0  0  0  0  0  0  0  0  0
   27.3848    0.5727  -11.7322 C   0  0  2  0  0  0  0  0  0  0  0  0
   27.4351    1.9427  -11.6581 O   0  0  0  0  0  0  0  0  0  0  0  0
   26.7793    0.1581  -13.0882 C   0  0  2  0  0  0  0  0  0  0  0  0
   27.4007    0.7558  -14.1323 F   0  0  0  0  0  0  0  0  0  0  0  0
   25.3627    0.7067  -12.8525 C   0  0  2  0  0  0  0  0  0  0  0  0
   25.4967    2.0925  -12.6986 F   0  0  0  0  0  0  0  0  0  0  0  0
  1  2  1  6
  2  3  2  0
  2  4  2  0
  2  5  1  6
  5  6  2  0
  6  7  1  0
  7  8  2  0
  8  9  1  0
  9 10  1  0
 10 11  2  0
 11 12  1  0
 12 13  1  0
 12 14  2  0
 14 15  1  0
 15 16  1  0
 16 17  3  0
 15 18  2  0
  8 19  1  0
 19 20  2  0
 20 21  1  0
 21 22  1  6
 21 23  1  0
 23 24  1  6
 23 25  1  0
 25 26  1  1
 20  5  1  0
 18 10  1  0
 25 19  1  0
M  END
$$$$
