_rank2
     RDKit          3D

 26 28  0  0  0  0  0  0  0  0999 V2000
   27.9892    0.6601   -7.5527 C   0  0  0  0  0  0  0  0  0  0  0  0
   27.8936   -0.5558   -8.8367 S   0  0  2  0  0  6  0  0  0  0  0  0
   28.0115   -1.9326   -8.2320 O   0  0  0  0  0  0  0  0  0  0  0  0
   29.0061   -0.4049   -9.8204 O   0  0  0  0  0  0  0  0  0  0  0  0
   26.3766   -0.4488   -9.7178 C   0  0  0  0  0  0  0  0  0  0  0  0
   25.1859   -0.7972   -9.1093 C   0  0  0  0  0  0  0  0  0  0  0  0
   24.0045   -0.6998   -9.8377 C   0  0  0  0  0  0  0  0  0  0  0  0
   23.9810   -0.2662  -11.1491 C   0  0  0  0  0  0  0  0  0  0  0  0
   22.7706   -0.2120  -11.7628 O   0  0  0  0  0  0  0  0  0  0  0  0
   21.5200   -0.4476  -11.3051 C   0  0  0  0  0  0  0  0  0  0  0  0
   20.9790   -1.7165  -11.5504 C   0  0  0  0  0  0  0  0  0  0  0  0
   19.7310   -2.0729  -11.1389 C   0  0  0  0  0  0  0  0  0  0  0  0
   19.2424   -3.3301  -11.4028 F   0  0  0  0  0  0  0  0  0  0  0  0
   18.9392   -1.1768  -10.4512 C   0  0  0  0  0  0  0  0  0  0  0  0
   19.4343    0.0817  -10.1896 C   0  0  0  0  0  0  0  0  0  0  0  0
   18.5914    0.9928   -9.4738 C   0  0  0  0  0  0  0  0  0  0  0  0
   17.9213    1.7435   -8.9022 N   0  0  0  0  0  0  0  0  0  0  0  0
   20.7020    0.4201  -10.6164 C   0  0  0  0  0  0  0  0  0  0  0  0
   25.2054    0.0687  -11.7041 C   0  0  0  0  0  0  0  0  0  0  0  0
   26.4009   -0.0119  -11.0224 C   0  0  0  0  0  0  0  0  0  0  0  0
   27.5234    0.4175  -11.9401 C   0  0  2  0  0  0  0  0  0  0  0  0
   27.6132    1.7876  -11.9328 O   0  0  0  0  0  0  0  0  0  0  0  0
   26.8991   -0.0445  -13.2720 C   0  0  2  0  0  0  0  0  0  0  0  0
   27.5318    0.4838  -14.3463 F   0  0  0  0  0  0  0  0  0  0  0  0
   25.5000    0.5553  -13.0577 C   0  0  2  0  0  0  0  0  0  0  0  0
   25.6743    1.9425  -12.9717 F   0  0  0  0  0  0  0  0  0  0  0  0
  1  2  1  6
  2  3  2  0
  2  4  2  0
  2  5  1  6
  5  6  2  0
  6  7  1  0
  7  8  2  0
  8  9  1  0
  9 10  1  0
 10 11  2  0
 11 12  1  0
 12 13  1  0
 12 14  2  0
 14 15  1  0
 15 16  1  0
 16 17  3  0
 15 18  2  0
  8 19  1  0
 19 20  2  0
 20 21  1  0
 21 22  1  6
 21 23  1  0
 23 24  1  6
 23 25  1  0
 25 26  1  1
 20  5  1  0
 18 10  1  0
 25 19  1  0
M  END
$$$$
