_rank11
     RDKit          3D

 26 28  0  0  0  0  0  0  0  0999 V2000
   28.6544   -1.8193   -9.2596 C   0  0  0  0  0  0  0  0  0  0  0  0
   27.7515   -0.4658   -8.5602 S   0  0  2  0  0  6  0  0  0  0  0  0
   28.5780    0.7919   -8.6598 O   0  0  0  0  0  0  0  0  0  0  0  0
   27.4558   -0.6910   -7.1146 O   0  0  0  0  0  0  0  0  0  0  0  0
   26.2231   -0.2101   -9.3895 C   0  0  0  0  0  0  0  0  0  0  0  0
   25.0261   -0.3539   -8.7143 C   0  0  0  0  0  0  0  0  0  0  0  0
   23.8356   -0.1435   -9.4033 C   0  0  0  0  0  0  0  0  0  0  0  0
   23.8094    0.2047  -10.7398 C   0  0  0  0  0  0  0  0  0  0  0  0
   22.5899    0.3835  -11.3103 O   0  0  0  0  0  0  0  0  0  0  0  0
   21.3609   -0.0592  -10.9603 C   0  0  0  0  0  0  0  0  0  0  0  0
   20.4954    0.8662  -10.3624 C   0  0  0  0  0  0  0  0  0  0  0  0
   19.2339    0.5403   -9.9673 C   0  0  0  0  0  0  0  0  0  0  0  0
   18.4205    1.4827   -9.3848 F   0  0  0  0  0  0  0  0  0  0  0  0
   18.7542   -0.7406  -10.1463 C   0  0  0  0  0  0  0  0  0  0  0  0
   19.5739   -1.6806  -10.7308 C   0  0  0  0  0  0  0  0  0  0  0  0
   19.0512   -3.0033  -10.9050 C   0  0  0  0  0  0  0  0  0  0  0  0
   18.6261   -4.0678  -11.0643 N   0  0  0  0  0  0  0  0  0  0  0  0
   20.8487   -1.3271  -11.1232 C   0  0  0  0  0  0  0  0  0  0  0  0
   25.0405    0.3339  -11.3619 C   0  0  0  0  0  0  0  0  0  0  0  0
   26.2449    0.1352  -10.7213 C   0  0  0  0  0  0  0  0  0  0  0  0
   27.3709    0.3486  -11.7079 C   0  0  2  0  0  0  0  0  0  0  0  0
   27.6425    1.6914  -11.7991 O   0  0  0  0  0  0  0  0  0  0  0  0
   26.6297   -0.1084  -12.9802 C   0  0  2  0  0  0  0  0  0  0  0  0
   27.2766    0.2594  -14.1115 F   0  0  0  0  0  0  0  0  0  0  0  0
   25.3343    0.6885  -12.7561 C   0  0  2  0  0  0  0  0  0  0  0  0
   25.6955    2.0418  -12.7733 F   0  0  0  0  0  0  0  0  0  0  0  0
  1  2  1  6
  2  3  2  0
  2  4  2  0
  2  5  1  6
  5  6  2  0
  6  7  1  0
  7  8  2  0
  8  9  1  0
  9 10  1  0
 10 11  2  0
 11 12  1  0
 12 13  1  0
 12 14  2  0
 14 15  1  0
 15 16  1  0
 16 17  3  0
 15 18  2  0
  8 19  1  0
 19 20  2  0
 20 21  1  0
 21 22  1  6
 21 23  1  0
 23 24  1  6
 23 25  1  0
 25 26  1  1
 20  5  1  0
 18 10  1  0
 25 19  1  0
M  END
$$$$
