_rank17
     RDKit          3D

 26 28  0  0  0  0  0  0  0  0999 V2000
   29.2339    0.5453   -8.7447 C   0  0  0  0  0  0  0  0  0  0  0  0
   28.1311   -0.8395   -8.6974 S   0  0  2  0  0  6  0  0  0  0  0  0
   27.8685   -1.2213   -7.2620 O   0  0  0  0  0  0  0  0  0  0  0  0
   28.7180   -2.0328   -9.3753 O   0  0  0  0  0  0  0  0  0  0  0  0
   26.5997   -0.4743   -9.4789 C   0  0  0  0  0  0  0  0  0  0  0  0
   25.4097   -0.6174   -8.7913 C   0  0  0  0  0  0  0  0  0  0  0  0
   24.2167   -0.3191   -9.4422 C   0  0  0  0  0  0  0  0  0  0  0  0
   24.1811    0.1157  -10.7529 C   0  0  0  0  0  0  0  0  0  0  0  0
   22.9599    0.3760  -11.2871 O   0  0  0  0  0  0  0  0  0  0  0  0
   21.7238   -0.0646  -10.9598 C   0  0  0  0  0  0  0  0  0  0  0  0
   21.4507   -1.4210  -11.1797 C   0  0  0  0  0  0  0  0  0  0  0  0
   20.2443   -1.9817  -10.8899 C   0  0  0  0  0  0  0  0  0  0  0  0
   20.0225   -3.3179  -11.1231 F   0  0  0  0  0  0  0  0  0  0  0  0
   19.2273   -1.2164  -10.3580 C   0  0  0  0  0  0  0  0  0  0  0  0
   19.4555    0.1221  -10.1264 C   0  0  0  0  0  0  0  0  0  0  0  0
   18.3825    0.8942   -9.5735 C   0  0  0  0  0  0  0  0  0  0  0  0
   17.5284    1.5262   -9.1148 N   0  0  0  0  0  0  0  0  0  0  0  0
   20.6862    0.6682  -10.4280 C   0  0  0  0  0  0  0  0  0  0  0  0
   25.4055    0.2396  -11.3892 C   0  0  0  0  0  0  0  0  0  0  0  0
   26.6121   -0.0445  -10.7860 C   0  0  0  0  0  0  0  0  0  0  0  0
   27.7286    0.1908  -11.7783 C   0  0  2  0  0  0  0  0  0  0  0  0
   28.0495    1.5257  -11.7885 O   0  0  0  0  0  0  0  0  0  0  0  0
   26.9492   -0.1552  -13.0628 C   0  0  2  0  0  0  0  0  0  0  0  0
   27.5905    0.2610  -14.1805 F   0  0  0  0  0  0  0  0  0  0  0  0
   25.6891    0.6727  -12.7631 C   0  0  2  0  0  0  0  0  0  0  0  0
   26.1011    2.0100  -12.7005 F   0  0  0  0  0  0  0  0  0  0  0  0
  1  2  1  6
  2  3  2  0
  2  4  2  0
  2  5  1  6
  5  6  2  0
  6  7  1  0
  7  8  2  0
  8  9  1  0
  9 10  1  0
 10 11  2  0
 11 12  1  0
 12 13  1  0
 12 14  2  0
 14 15  1  0
 15 16  1  0
 16 17  3  0
 15 18  2  0
  8 19  1  0
 19 20  2  0
 20 21  1  0
 21 22  1  6
 21 23  1  0
 23 24  1  6
 23 25  1  0
 25 26  1  1
 20  5  1  0
 18 10  1  0
 25 19  1  0
M  END
$$$$
