_rank14
     RDKit          3D

 26 28  0  0  0  0  0  0  0  0999 V2000
   28.1493   -1.5587   -7.4646 C   0  0  0  0  0  0  0  0  0  0  0  0
   28.1113   -0.1356   -8.5179 S   0  0  2  0  0  6  0  0  0  0  0  0
   29.2643   -0.2003   -9.4883 O   0  0  0  0  0  0  0  0  0  0  0  0
   28.2559    1.1291   -7.7384 O   0  0  0  0  0  0  0  0  0  0  0  0
   26.6085   -0.0413   -9.4245 C   0  0  0  0  0  0  0  0  0  0  0  0
   25.3960   -0.2533   -8.7965 C   0  0  0  0  0  0  0  0  0  0  0  0
   24.2267   -0.1705   -9.5460 C   0  0  0  0  0  0  0  0  0  0  0  0
   24.2363    0.1167  -10.8972 C   0  0  0  0  0  0  0  0  0  0  0  0
   23.0350    0.1707  -11.5283 O   0  0  0  0  0  0  0  0  0  0  0  0
   21.7749   -0.0289  -11.0797 C   0  0  0  0  0  0  0  0  0  0  0  0
   21.2333   -1.3103  -11.2469 C   0  0  0  0  0  0  0  0  0  0  0  0
   19.9762   -1.6336  -10.8360 C   0  0  0  0  0  0  0  0  0  0  0  0
   19.4875   -2.9047  -11.0214 F   0  0  0  0  0  0  0  0  0  0  0  0
   19.1751   -0.6896  -10.2277 C   0  0  0  0  0  0  0  0  0  0  0  0
   19.6703    0.5825  -10.0445 C   0  0  0  0  0  0  0  0  0  0  0  0
   18.8177    1.5436   -9.4102 C   0  0  0  0  0  0  0  0  0  0  0  0
   18.1145    2.3072   -8.8984 N   0  0  0  0  0  0  0  0  0  0  0  0
   20.9474    0.8869  -10.4690 C   0  0  0  0  0  0  0  0  0  0  0  0
   25.4814    0.3192  -11.4701 C   0  0  0  0  0  0  0  0  0  0  0  0
   26.6660    0.2472  -10.7687 C   0  0  0  0  0  0  0  0  0  0  0  0
   27.8170    0.5093  -11.7137 C   0  0  2  0  0  0  0  0  0  0  0  0
   27.9849    1.8646  -11.8554 O   0  0  0  0  0  0  0  0  0  0  0  0
   27.1758   -0.0608  -12.9947 C   0  0  2  0  0  0  0  0  0  0  0  0
   27.8444    0.3097  -14.1124 F   0  0  0  0  0  0  0  0  0  0  0  0
   25.8119    0.6365  -12.8650 C   0  0  2  0  0  0  0  0  0  0  0  0
   26.0647    2.0128  -12.9294 F   0  0  0  0  0  0  0  0  0  0  0  0
  1  2  1  6
  2  3  2  0
  2  4  2  0
  2  5  1  6
  5  6  2  0
  6  7  1  0
  7  8  2  0
  8  9  1  0
  9 10  1  0
 10 11  2  0
 11 12  1  0
 12 13  1  0
 12 14  2  0
 14 15  1  0
 15 16  1  0
 16 17  3  0
 15 18  2  0
  8 19  1  0
 19 20  2  0
 20 21  1  0
 21 22  1  6
 21 23  1  0
 23 24  1  6
 23 25  1  0
 25 26  1  1
 20  5  1  0
 18 10  1  0
 25 19  1  0
M  END
$$$$
