_rank19
     RDKit          3D

 26 28  0  0  0  0  0  0  0  0999 V2000
   29.2732    0.4439   -8.3803 C   0  0  0  0  0  0  0  0  0  0  0  0
   28.2138   -0.9495   -8.6489 S   0  0  2  0  0  6  0  0  0  0  0  0
   27.9455   -1.6354   -7.3326 O   0  0  0  0  0  0  0  0  0  0  0  0
   28.8461   -1.9543   -9.5537 O   0  0  0  0  0  0  0  0  0  0  0  0
   26.6815   -0.4694   -9.3637 C   0  0  0  0  0  0  0  0  0  0  0  0
   25.5086   -0.5669   -8.6396 C   0  0  0  0  0  0  0  0  0  0  0  0
   24.3144   -0.1775   -9.2380 C   0  0  0  0  0  0  0  0  0  0  0  0
   24.2610    0.3038  -10.5318 C   0  0  0  0  0  0  0  0  0  0  0  0
   23.0402    0.6527  -11.0138 O   0  0  0  0  0  0  0  0  0  0  0  0
   21.8060    0.1506  -10.7824 C   0  0  0  0  0  0  0  0  0  0  0  0
   21.6225   -1.2204  -11.0057 C   0  0  0  0  0  0  0  0  0  0  0  0
   20.4271   -1.8414  -10.8077 C   0  0  0  0  0  0  0  0  0  0  0  0
   20.2949   -3.1894  -11.0401 F   0  0  0  0  0  0  0  0  0  0  0  0
   19.3316   -1.1259  -10.3709 C   0  0  0  0  0  0  0  0  0  0  0  0
   19.4702    0.2248  -10.1395 C   0  0  0  0  0  0  0  0  0  0  0  0
   18.3169    0.9442   -9.6863 C   0  0  0  0  0  0  0  0  0  0  0  0
   17.3741    1.5105   -9.3259 N   0  0  0  0  0  0  0  0  0  0  0  0
   20.6916    0.8323  -10.3470 C   0  0  0  0  0  0  0  0  0  0  0  0
   25.4688    0.3783  -11.2064 C   0  0  0  0  0  0  0  0  0  0  0  0
   26.6759    0.0041  -10.6557 C   0  0  0  0  0  0  0  0  0  0  0  0
   27.7707    0.2084  -11.6786 C   0  0  2  0  0  0  0  0  0  0  0  0
   28.1694    1.5220  -11.6565 O   0  0  0  0  0  0  0  0  0  0  0  0
   26.9299   -0.0471  -12.9454 C   0  0  2  0  0  0  0  0  0  0  0  0
   27.5571    0.3697  -14.0707 F   0  0  0  0  0  0  0  0  0  0  0  0
   25.7315    0.8416  -12.5746 C   0  0  2  0  0  0  0  0  0  0  0  0
   26.2238    2.1498  -12.4830 F   0  0  0  0  0  0  0  0  0  0  0  0
  1  2  1  6
  2  3  2  0
  2  4  2  0
  2  5  1  6
  5  6  2  0
  6  7  1  0
  7  8  2  0
  8  9  1  0
  9 10  1  0
 10 11  2  0
 11 12  1  0
 12 13  1  0
 12 14  2  0
 14 15  1  0
 15 16  1  0
 16 17  3  0
 15 18  2  0
  8 19  1  0
 19 20  2  0
 20 21  1  0
 21 22  1  6
 21 23  1  0
 23 24  1  6
 23 25  1  0
 25 26  1  1
 20  5  1  0
 18 10  1  0
 25 19  1  0
M  END
$$$$
