_rank16
     RDKit          3D

 26 28  0  0  0  0  0  0  0  0999 V2000
   29.0090   -1.3085   -9.6538 C   0  0  0  0  0  0  0  0  0  0  0  0
   27.7739   -0.5318   -8.6500 S   0  0  2  0  0  6  0  0  0  0  0  0
   28.2698    0.8209   -8.2036 O   0  0  0  0  0  0  0  0  0  0  0  0
   27.4843   -1.3277   -7.4209 O   0  0  0  0  0  0  0  0  0  0  0  0
   26.2644   -0.3244   -9.5261 C   0  0  0  0  0  0  0  0  0  0  0  0
   25.0676   -0.7305   -8.9673 C   0  0  0  0  0  0  0  0  0  0  0  0
   23.8924   -0.5505   -9.6900 C   0  0  0  0  0  0  0  0  0  0  0  0
   23.8809    0.0209  -10.9476 C   0  0  0  0  0  0  0  0  0  0  0  0
   22.6757    0.1458  -11.5611 O   0  0  0  0  0  0  0  0  0  0  0  0
   21.4214   -0.1398  -11.1438 C   0  0  0  0  0  0  0  0  0  0  0  0
   20.6878    0.9044  -10.5656 C   0  0  0  0  0  0  0  0  0  0  0  0
   19.4158    0.7406  -10.1084 C   0  0  0  0  0  0  0  0  0  0  0  0
   18.7351    1.7950   -9.5483 F   0  0  0  0  0  0  0  0  0  0  0  0
   18.7923   -0.4864  -10.2009 C   0  0  0  0  0  0  0  0  0  0  0  0
   19.4795   -1.5394  -10.7632 C   0  0  0  0  0  0  0  0  0  0  0  0
   18.8088   -2.8028  -10.8471 C   0  0  0  0  0  0  0  0  0  0  0  0
   18.2671   -3.8218  -10.9341 N   0  0  0  0  0  0  0  0  0  0  0  0
   20.7676   -1.3494  -11.2197 C   0  0  0  0  0  0  0  0  0  0  0  0
   25.1109    0.4077  -11.4544 C   0  0  0  0  0  0  0  0  0  0  0  0
   26.3007    0.2493  -10.7763 C   0  0  0  0  0  0  0  0  0  0  0  0
   27.4320    0.7692  -11.6343 C   0  0  2  0  0  0  0  0  0  0  0  0
   27.5268    2.1302  -11.4800 O   0  0  0  0  0  0  0  0  0  0  0  0
   26.8167    0.4549  -13.0126 C   0  0  2  0  0  0  0  0  0  0  0  0
   27.4598    1.0922  -14.0195 F   0  0  0  0  0  0  0  0  0  0  0  0
   25.4182    1.0348  -12.7460 C   0  0  2  0  0  0  0  0  0  0  0  0
   25.5969    2.4040  -12.5109 F   0  0  0  0  0  0  0  0  0  0  0  0
  1  2  1  6
  2  3  2  0
  2  4  2  0
  2  5  1  6
  5  6  2  0
  6  7  1  0
  7  8  2  0
  8  9  1  0
  9 10  1  0
 10 11  2  0
 11 12  1  0
 12 13  1  0
 12 14  2  0
 14 15  1  0
 15 16  1  0
 16 17  3  0
 15 18  2  0
  8 19  1  0
 19 20  2  0
 20 21  1  0
 21 22  1  6
 21 23  1  0
 23 24  1  6
 23 25  1  0
 25 26  1  1
 20  5  1  0
 18 10  1  0
 25 19  1  0
M  END
$$$$
