_rank5
     RDKit          3D

 26 28  0  0  0  0  0  0  0  0999 V2000
   28.7476    0.9212   -8.4147 C   0  0  0  0  0  0  0  0  0  0  0  0
   27.9085   -0.6324   -8.5497 S   0  0  2  0  0  6  0  0  0  0  0  0
   27.6131   -1.1633   -7.1692 O   0  0  0  0  0  0  0  0  0  0  0  0
   28.7466   -1.6508   -9.2485 O   0  0  0  0  0  0  0  0  0  0  0  0
   26.3983   -0.4774   -9.4354 C   0  0  0  0  0  0  0  0  0  0  0  0
   25.1965   -0.8005   -8.8348 C   0  0  0  0  0  0  0  0  0  0  0  0
   24.0209   -0.6654   -9.5666 C   0  0  0  0  0  0  0  0  0  0  0  0
   24.0139   -0.2188  -10.8738 C   0  0  0  0  0  0  0  0  0  0  0  0
   22.8078   -0.1273  -11.4915 O   0  0  0  0  0  0  0  0  0  0  0  0
   21.5522   -0.3678  -11.0504 C   0  0  0  0  0  0  0  0  0  0  0  0
   21.0289   -1.6469  -11.2807 C   0  0  0  0  0  0  0  0  0  0  0  0
   19.7779   -2.0091  -10.8836 C   0  0  0  0  0  0  0  0  0  0  0  0
   19.3072   -3.2763  -11.1317 F   0  0  0  0  0  0  0  0  0  0  0  0
   18.9650   -1.1089  -10.2264 C   0  0  0  0  0  0  0  0  0  0  0  0
   19.4422    0.1596   -9.9805 C   0  0  0  0  0  0  0  0  0  0  0  0
   18.5777    1.0748   -9.2964 C   0  0  0  0  0  0  0  0  0  0  0  0
   17.8894    1.8110   -8.7276 N   0  0  0  0  0  0  0  0  0  0  0  0
   20.7134    0.5037  -10.3922 C   0  0  0  0  0  0  0  0  0  0  0  0
   25.2488    0.0894  -11.4209 C   0  0  0  0  0  0  0  0  0  0  0  0
   26.4391   -0.0288  -10.7356 C   0  0  0  0  0  0  0  0  0  0  0  0
   27.5760    0.3800  -11.6449 C   0  0  2  0  0  0  0  0  0  0  0  0
   27.7014    1.7471  -11.6240 O   0  0  0  0  0  0  0  0  0  0  0  0
   26.9453   -0.0529  -12.9835 C   0  0  2  0  0  0  0  0  0  0  0  0
   27.5957    0.4691  -14.0503 F   0  0  0  0  0  0  0  0  0  0  0  0
   25.5614    0.5811  -12.7687 C   0  0  2  0  0  0  0  0  0  0  0  0
   25.7714    1.9624  -12.6686 F   0  0  0  0  0  0  0  0  0  0  0  0
  1  2  1  6
  2  3  2  0
  2  4  2  0
  2  5  1  6
  5  6  2  0
  6  7  1  0
  7  8  2  0
  8  9  1  0
  9 10  1  0
 10 11  2  0
 11 12  1  0
 12 13  1  0
 12 14  2  0
 14 15  1  0
 15 16  1  0
 16 17  3  0
 15 18  2  0
  8 19  1  0
 19 20  2  0
 20 21  1  0
 21 22  1  6
 21 23  1  0
 23 24  1  6
 23 25  1  0
 25 26  1  1
 20  5  1  0
 18 10  1  0
 25 19  1  0
M  END
$$$$
