_rank20
     RDKit          3D

 26 28  0  0  0  0  0  0  0  0999 V2000
   28.8626    1.5162   -9.3028 C   0  0  0  0  0  0  0  0  0  0  0  0
   27.6352    0.9793   -8.1446 S   0  0  2  0  0  6  0  0  0  0  0  0
   27.1714    2.1574   -7.3247 O   0  0  0  0  0  0  0  0  0  0  0  0
   28.1812   -0.0358   -7.1962 O   0  0  0  0  0  0  0  0  0  0  0  0
   26.2474    0.2680   -8.9553 C   0  0  0  0  0  0  0  0  0  0  0  0
   24.9821    0.7911   -8.7689 C   0  0  0  0  0  0  0  0  0  0  0  0
   23.9070    0.2020   -9.4271 C   0  0  0  0  0  0  0  0  0  0  0  0
   24.0614   -0.8882  -10.2612 C   0  0  0  0  0  0  0  0  0  0  0  0
   22.9416   -1.3820  -10.8501 O   0  0  0  0  0  0  0  0  0  0  0  0
   21.6324   -1.0906  -10.6766 C   0  0  0  0  0  0  0  0  0  0  0  0
   21.3264    0.1274  -10.0555 C   0  0  0  0  0  0  0  0  0  0  0  0
   20.0466    0.5317   -9.8262 C   0  0  0  0  0  0  0  0  0  0  0  0
   19.7952    1.7357   -9.2132 F   0  0  0  0  0  0  0  0  0  0  0  0
   18.9842   -0.2618  -10.2062 C   0  0  0  0  0  0  0  0  0  0  0  0
   19.2424   -1.4674  -10.8203 C   0  0  0  0  0  0  0  0  0  0  0  0
   18.1209   -2.2721  -11.2048 C   0  0  0  0  0  0  0  0  0  0  0  0
   17.2272   -2.9362  -11.5206 N   0  0  0  0  0  0  0  0  0  0  0  0
   20.5476   -1.8560  -11.0423 C   0  0  0  0  0  0  0  0  0  0  0  0
   25.3530   -1.3672  -10.4082 C   0  0  0  0  0  0  0  0  0  0  0  0
   26.4482   -0.8174   -9.7769 C   0  0  0  0  0  0  0  0  0  0  0  0
   27.6840   -1.6011  -10.1582 C   0  0  2  0  0  0  0  0  0  0  0  0
   28.1527   -1.1453  -11.3655 O   0  0  0  0  0  0  0  0  0  0  0  0
   27.0126   -2.9745  -10.3586 C   0  0  2  0  0  0  0  0  0  0  0  0
   27.8127   -3.8461  -11.0172 F   0  0  0  0  0  0  0  0  0  0  0  0
   25.8291   -2.4971  -11.2159 C   0  0  2  0  0  0  0  0  0  0  0  0
   26.3805   -1.9662  -12.3890 F   0  0  0  0  0  0  0  0  0  0  0  0
  1  2  1  6
  2  3  2  0
  2  4  2  0
  2  5  1  6
  5  6  2  0
  6  7  1  0
  7  8  2  0
  8  9  1  0
  9 10  1  0
 10 11  2  0
 11 12  1  0
 12 13  1  0
 12 14  2  0
 14 15  1  0
 15 16  1  0
 16 17  3  0
 15 18  2  0
  8 19  1  0
 19 20  2  0
 20 21  1  0
 21 22  1  6
 21 23  1  0
 23 24  1  6
 23 25  1  0
 25 26  1  6
 20  5  1  0
 18 10  1  0
 25 19  1  0
M  END
$$$$
