_rank16
     RDKit          3D

 19 21  0  0  0  0  0  0  0  0999 V2000
   28.6516   -0.8532   -8.7008 C   0  0  0  0  0  0  0  0  0  0  0  0
   27.1492    0.0045   -8.2933 S   0  0  1  0  0  6  0  0  0  0  0  0
   26.3675   -0.8351   -7.3243 O   0  0  0  0  0  0  0  0  0  0  0  0
   27.5328    1.3121   -7.6451 O   0  0  0  0  0  0  0  0  0  0  0  0
   26.1982    0.3487   -9.7570 C   0  0  1  0  0  0  0  0  0  0  0  0
   26.9486   -0.2439  -10.9256 C   0  0  0  0  0  0  0  0  0  0  0  0
   25.8923   -0.9031  -11.8208 C   0  0  0  0  0  0  0  0  0  0  0  0
   24.7875    0.1243  -11.9732 C   0  0  0  0  0  0  0  0  0  0  0  0
   23.9182   -0.0501  -10.7300 C   0  0  1  0  0  0  0  0  0  0  0  0
   24.8419   -0.2796   -9.5654 C   0  0  0  0  0  0  0  0  0  0  0  0
   22.9955    1.0128  -10.5442 N   0  0  0  0  0  0  0  0  0  0  0  0
   21.7158    0.4213  -10.3455 C   0  0  0  0  0  0  0  0  0  0  0  0
   20.4825    0.9803   -9.9649 C   0  0  0  0  0  0  0  0  0  0  0  0
   19.3963    0.1440   -9.8523 C   0  0  0  0  0  0  0  0  0  0  0  0
   18.1983    0.6274   -9.4926 F   0  0  0  0  0  0  0  0  0  0  0  0
   19.5269   -1.2094  -10.1093 C   0  0  0  0  0  0  0  0  0  0  0  0
   20.7348   -1.7517  -10.4811 C   0  0  0  0  0  0  0  0  0  0  0  0
   21.8561   -0.9198  -10.6027 C   0  0  0  0  0  0  0  0  0  0  0  0
   23.1576   -1.2223  -10.9562 O   0  0  0  0  0  0  0  0  0  0  0  0
  2  1  1  6
  2  3  2  0
  2  4  2  0
  5  2  1  1
  6  5  1  6
  7  6  1  1
  8  7  1  1
  8  9  1  0
 10  9  1  6
  9 11  1  1
 11 12  1  0
 12 13  2  0
 13 14  1  0
 14 15  1  0
 14 16  2  0
 16 17  1  0
 17 18  2  0
 18 19  1  0
 10  5  1  0
 18 12  1  0
  9 19  1  0
M  END
$$$$
