_rank6
     RDKit          3D

 19 21  0  0  0  0  0  0  0  0999 V2000
   26.8428    1.1097   -6.9928 C   0  0  0  0  0  0  0  0  0  0  0  0
   27.1437   -0.0642   -8.2930 S   0  0  1  0  0  6  0  0  0  0  0  0
   28.6179   -0.0943   -8.5776 O   0  0  0  0  0  0  0  0  0  0  0  0
   26.6892   -1.4161   -7.8002 O   0  0  0  0  0  0  0  0  0  0  0  0
   26.2165    0.3542   -9.7527 C   0  0  1  0  0  0  0  0  0  0  0  0
   26.9964   -0.1605  -10.9388 C   0  0  0  0  0  0  0  0  0  0  0  0
   25.9658   -0.7782  -11.8915 C   0  0  0  0  0  0  0  0  0  0  0  0
   24.8512    0.2437  -12.0057 C   0  0  0  0  0  0  0  0  0  0  0  0
   23.9607   -0.0129  -10.7921 C   0  0  1  0  0  0  0  0  0  0  0  0
   24.8648   -0.2997   -9.6248 C   0  0  0  0  0  0  0  0  0  0  0  0
   23.0213    1.0267  -10.5630 N   0  0  0  0  0  0  0  0  0  0  0  0
   21.7457    0.4101  -10.4244 C   0  0  0  0  0  0  0  0  0  0  0  0
   20.4984    0.9318  -10.0364 C   0  0  0  0  0  0  0  0  0  0  0  0
   19.4208    0.0780   -9.9941 C   0  0  0  0  0  0  0  0  0  0  0  0
   18.2102    0.5258   -9.6306 F   0  0  0  0  0  0  0  0  0  0  0  0
   19.5732   -1.2565  -10.3269 C   0  0  0  0  0  0  0  0  0  0  0  0
   20.7947   -1.7623  -10.7058 C   0  0  0  0  0  0  0  0  0  0  0  0
   21.9076   -0.9120  -10.7565 C   0  0  0  0  0  0  0  0  0  0  0  0
   23.2192   -1.1785  -11.1013 O   0  0  0  0  0  0  0  0  0  0  0  0
  2  1  1  1
  2  3  2  0
  2  4  2  0
  5  2  1  1
  6  5  1  6
  7  6  1  1
  8  7  1  1
  8  9  1  0
 10  9  1  6
  9 11  1  1
 11 12  1  0
 12 13  2  0
 13 14  1  0
 14 15  1  0
 14 16  2  0
 16 17  1  0
 17 18  2  0
 18 19  1  0
 10  5  1  0
 18 12  1  0
  9 19  1  0
M  END
$$$$
