_rank17
     RDKit          3D

 19 21  0  0  0  0  0  0  0  0999 V2000
   28.0838   -1.4960   -8.3593 C   0  0  0  0  0  0  0  0  0  0  0  0
   27.0729   -0.0497   -8.1459 S   0  0  1  0  0  6  0  0  0  0  0  0
   26.1375   -0.2863   -6.9952 O   0  0  0  0  0  0  0  0  0  0  0  0
   27.9913    1.1053   -7.8307 O   0  0  0  0  0  0  0  0  0  0  0  0
   26.1757    0.3228   -9.6364 C   0  0  1  0  0  0  0  0  0  0  0  0
   26.9872   -0.2143  -10.7910 C   0  0  0  0  0  0  0  0  0  0  0  0
   25.9842   -0.8657  -11.7508 C   0  0  0  0  0  0  0  0  0  0  0  0
   24.8634    0.1424  -11.9162 C   0  0  0  0  0  0  0  0  0  0  0  0
   23.9476   -0.0920  -10.7170 C   0  0  1  0  0  0  0  0  0  0  0  0
   24.8273   -0.3406   -9.5226 C   0  0  0  0  0  0  0  0  0  0  0  0
   22.9940    0.9440  -10.5358 N   0  0  0  0  0  0  0  0  0  0  0  0
   21.7211    0.3190  -10.4106 C   0  0  0  0  0  0  0  0  0  0  0  0
   20.4606    0.8384  -10.0643 C   0  0  0  0  0  0  0  0  0  0  0  0
   19.3900   -0.0243  -10.0247 C   0  0  0  0  0  0  0  0  0  0  0  0
   18.1674    0.4210   -9.7002 F   0  0  0  0  0  0  0  0  0  0  0  0
   19.5620   -1.3652  -10.3198 C   0  0  0  0  0  0  0  0  0  0  0  0
   20.7963   -1.8688  -10.6579 C   0  0  0  0  0  0  0  0  0  0  0  0
   21.9024   -1.0094  -10.7051 C   0  0  0  0  0  0  0  0  0  0  0  0
   23.2239   -1.2720  -11.0131 O   0  0  0  0  0  0  0  0  0  0  0  0
  2  1  1  6
  2  3  2  0
  2  4  2  0
  5  2  1  1
  6  5  1  6
  7  6  1  1
  8  7  1  1
  8  9  1  0
 10  9  1  6
  9 11  1  1
 11 12  1  0
 12 13  2  0
 13 14  1  0
 14 15  1  0
 14 16  2  0
 16 17  1  0
 17 18  2  0
 18 19  1  0
 10  5  1  0
 18 12  1  0
  9 19  1  0
M  END
$$$$
