_rank7
     RDKit          3D

 19 21  0  0  0  0  0  0  0  0999 V2000
   28.7639    0.6034   -8.6181 C   0  0  0  0  0  0  0  0  0  0  0  0
   27.0634    0.1199   -8.4356 S   0  0  1  0  0  6  0  0  0  0  0  0
   27.0136   -1.3535   -8.1502 O   0  0  0  0  0  0  0  0  0  0  0  0
   26.4945    0.8877   -7.2678 O   0  0  0  0  0  0  0  0  0  0  0  0
   26.1291    0.5230   -9.8951 C   0  0  1  0  0  0  0  0  0  0  0  0
   26.9434    0.0722  -11.0841 C   0  0  0  0  0  0  0  0  0  0  0  0
   25.9524   -0.5751  -12.0591 C   0  0  0  0  0  0  0  0  0  0  0  0
   24.7900    0.3931  -12.1627 C   0  0  0  0  0  0  0  0  0  0  0  0
   23.9029    0.0677  -10.9632 C   0  0  1  0  0  0  0  0  0  0  0  0
   24.8101   -0.1989   -9.7935 C   0  0  0  0  0  0  0  0  0  0  0  0
   22.9117    1.0550  -10.7217 N   0  0  0  0  0  0  0  0  0  0  0  0
   21.6667    0.3738  -10.6079 C   0  0  0  0  0  0  0  0  0  0  0  0
   20.3920    0.8255  -10.2210 C   0  0  0  0  0  0  0  0  0  0  0  0
   19.3575   -0.0807  -10.2065 C   0  0  0  0  0  0  0  0  0  0  0  0
   18.1232    0.2995   -9.8454 F   0  0  0  0  0  0  0  0  0  0  0  0
   19.5781   -1.3989  -10.5653 C   0  0  0  0  0  0  0  0  0  0  0  0
   20.8261   -1.8361  -10.9429 C   0  0  0  0  0  0  0  0  0  0  0  0
   21.8963   -0.9314  -10.9656 C   0  0  0  0  0  0  0  0  0  0  0  0
   23.2223   -1.1260  -11.3033 O   0  0  0  0  0  0  0  0  0  0  0  0
  2  1  1  6
  2  3  2  0
  2  4  2  0
  5  2  1  1
  6  5  1  6
  7  6  1  1
  8  7  1  1
  8  9  1  0
 10  9  1  6
  9 11  1  1
 11 12  1  0
 12 13  2  0
 13 14  1  0
 14 15  1  0
 14 16  2  0
 16 17  1  0
 17 18  2  0
 18 19  1  0
 10  5  1  0
 18 12  1  0
  9 19  1  0
M  END
$$$$
