_rank5
     RDKit          3D

 19 21  0  0  0  0  0  0  0  0999 V2000
   27.4350   -1.4824   -8.2066 C   0  0  0  0  0  0  0  0  0  0  0  0
   27.3923    0.2652   -8.5276 S   0  0  1  0  0  6  0  0  0  0  0  0
   26.8351    0.9596   -7.3183 O   0  0  0  0  0  0  0  0  0  0  0  0
   28.8109    0.7184   -8.7706 O   0  0  0  0  0  0  0  0  0  0  0  0
   26.4220    0.6207   -9.9759 C   0  0  1  0  0  0  0  0  0  0  0  0
   27.1998    0.1169  -11.1681 C   0  0  0  0  0  0  0  0  0  0  0  0
   26.1773   -0.5580  -12.0903 C   0  0  0  0  0  0  0  0  0  0  0  0
   25.0206    0.4164  -12.2000 C   0  0  0  0  0  0  0  0  0  0  0  0
   24.1638    0.1456  -10.9654 C   0  0  1  0  0  0  0  0  0  0  0  0
   25.1003   -0.0844   -9.8111 C   0  0  0  0  0  0  0  0  0  0  0  0
   23.1878    1.1507  -10.7355 N   0  0  0  0  0  0  0  0  0  0  0  0
   21.9408    0.4862  -10.5621 C   0  0  0  0  0  0  0  0  0  0  0  0
   20.6809    0.9644  -10.1588 C   0  0  0  0  0  0  0  0  0  0  0  0
   19.6396    0.0691  -10.0815 C   0  0  0  0  0  0  0  0  0  0  0  0
   18.4189    0.4745   -9.7022 F   0  0  0  0  0  0  0  0  0  0  0  0
   19.8394   -1.2638  -10.3949 C   0  0  0  0  0  0  0  0  0  0  0  0
   21.0730   -1.7270  -10.7887 C   0  0  0  0  0  0  0  0  0  0  0  0
   22.1496   -0.8339  -10.8751 C   0  0  0  0  0  0  0  0  0  0  0  0
   23.4642   -1.0538  -11.2406 O   0  0  0  0  0  0  0  0  0  0  0  0
  2  1  1  1
  2  3  2  0
  2  4  2  0
  5  2  1  1
  6  5  1  6
  7  6  1  1
  8  7  1  1
  8  9  1  0
 10  9  1  6
  9 11  1  1
 11 12  1  0
 12 13  2  0
 13 14  1  0
 14 15  1  0
 14 16  2  0
 16 17  1  0
 17 18  2  0
 18 19  1  0
 10  5  1  0
 18 12  1  0
  9 19  1  0
M  END
$$$$
