_rank2
     RDKit          3D

 19 21  0  0  0  0  0  0  0  0999 V2000
   26.7227    0.8417   -6.8949 C   0  0  0  0  0  0  0  0  0  0  0  0
   27.2585   -0.0267   -8.3501 S   0  0  1  0  0  6  0  0  0  0  0  0
   28.7142    0.2673   -8.5730 O   0  0  0  0  0  0  0  0  0  0  0  0
   27.0666   -1.5018   -8.0967 O   0  0  0  0  0  0  0  0  0  0  0  0
   26.2851    0.4425   -9.7634 C   0  0  1  0  0  0  0  0  0  0  0  0
   27.0754    0.0660  -10.9937 C   0  0  0  0  0  0  0  0  0  0  0  0
   26.0684   -0.5402  -11.9786 C   0  0  0  0  0  0  0  0  0  0  0  0
   24.8934    0.4180  -12.0028 C   0  0  0  0  0  0  0  0  0  0  0  0
   24.0390    0.0180  -10.8021 C   0  0  1  0  0  0  0  0  0  0  0  0
   24.9769   -0.2998   -9.6700 C   0  0  0  0  0  0  0  0  0  0  0  0
   23.0431    0.9788  -10.4846 N   0  0  0  0  0  0  0  0  0  0  0  0
   21.8088    0.2774  -10.3785 C   0  0  0  0  0  0  0  0  0  0  0  0
   20.5389    0.6922   -9.9382 C   0  0  0  0  0  0  0  0  0  0  0  0
   19.5149   -0.2260   -9.9482 C   0  0  0  0  0  0  0  0  0  0  0  0
   18.2857    0.1193   -9.5383 F   0  0  0  0  0  0  0  0  0  0  0  0
   19.7413   -1.5203  -10.3825 C   0  0  0  0  0  0  0  0  0  0  0  0
   20.9845   -1.9215  -10.8122 C   0  0  0  0  0  0  0  0  0  0  0  0
   22.0439   -1.0039  -10.8112 C   0  0  0  0  0  0  0  0  0  0  0  0
   23.3634   -1.1640  -11.1899 O   0  0  0  0  0  0  0  0  0  0  0  0
  2  1  1  1
  2  3  2  0
  2  4  2  0
  5  2  1  1
  6  5  1  6
  7  6  1  1
  8  7  1  1
  8  9  1  0
 10  9  1  6
  9 11  1  1
 11 12  1  0
 12 13  2  0
 13 14  1  0
 14 15  1  0
 14 16  2  0
 16 17  1  0
 17 18  2  0
 18 19  1  0
 10  5  1  0
 18 12  1  0
  9 19  1  0
M  END
$$$$
