_rank9
     RDKit          3D

 19 21  0  0  0  0  0  0  0  0999 V2000
   28.8120   -0.0539   -8.7645 C   0  0  0  0  0  0  0  0  0  0  0  0
   27.0844    0.0704   -8.3659 S   0  0  1  0  0  6  0  0  0  0  0  0
   26.6494   -1.2139   -7.7205 O   0  0  0  0  0  0  0  0  0  0  0  0
   26.9223    1.2130   -7.3938 O   0  0  0  0  0  0  0  0  0  0  0  0
   26.1208    0.4161   -9.8210 C   0  0  1  0  0  0  0  0  0  0  0  0
   26.8656   -0.1677  -10.9977 C   0  0  0  0  0  0  0  0  0  0  0  0
   25.8060   -0.8284  -11.8879 C   0  0  0  0  0  0  0  0  0  0  0  0
   24.6949    0.1941  -12.0278 C   0  0  0  0  0  0  0  0  0  0  0  0
   23.8358    0.0099  -10.7789 C   0  0  1  0  0  0  0  0  0  0  0  0
   24.7692   -0.2200   -9.6221 C   0  0  0  0  0  0  0  0  0  0  0  0
   22.9091    1.0673  -10.5817 N   0  0  0  0  0  0  0  0  0  0  0  0
   21.6340    0.4685  -10.3762 C   0  0  0  0  0  0  0  0  0  0  0  0
   20.4006    1.0196   -9.9841 C   0  0  0  0  0  0  0  0  0  0  0  0
   19.3196    0.1773   -9.8671 C   0  0  0  0  0  0  0  0  0  0  0  0
   18.1218    0.6530   -9.4964 F   0  0  0  0  0  0  0  0  0  0  0  0
   19.4551   -1.1743  -10.1309 C   0  0  0  0  0  0  0  0  0  0  0  0
   20.6629   -1.7089  -10.5141 C   0  0  0  0  0  0  0  0  0  0  0  0
   21.7791   -0.8707  -10.6403 C   0  0  0  0  0  0  0  0  0  0  0  0
   23.0794   -1.1651  -11.0047 O   0  0  0  0  0  0  0  0  0  0  0  0
  2  1  1  6
  2  3  2  0
  2  4  2  0
  5  2  1  1
  6  5  1  6
  7  6  1  1
  8  7  1  1
  8  9  1  0
 10  9  1  6
  9 11  1  1
 11 12  1  0
 12 13  2  0
 13 14  1  0
 14 15  1  0
 14 16  2  0
 16 17  1  0
 17 18  2  0
 18 19  1  0
 10  5  1  0
 18 12  1  0
  9 19  1  0
M  END
$$$$
