_rank13
     RDKit          3D

 19 21  0  0  0  0  0  0  0  0999 V2000
   28.0060   -1.7977   -8.6185 C   0  0  0  0  0  0  0  0  0  0  0  0
   27.1965   -0.2340   -8.3767 S   0  0  1  0  0  6  0  0  0  0  0  0
   26.3174   -0.3336   -7.1634 O   0  0  0  0  0  0  0  0  0  0  0  0
   28.2684    0.8034   -8.1492 O   0  0  0  0  0  0  0  0  0  0  0  0
   26.2550    0.2223   -9.8158 C   0  0  1  0  0  0  0  0  0  0  0  0
   27.0553   -0.2007  -11.0244 C   0  0  0  0  0  0  0  0  0  0  0  0
   26.0501   -0.8083  -12.0103 C   0  0  0  0  0  0  0  0  0  0  0  0
   24.8970    0.1743  -12.0754 C   0  0  0  0  0  0  0  0  0  0  0  0
   24.0160   -0.1781  -10.8790 C   0  0  1  0  0  0  0  0  0  0  0  0
   24.9295   -0.4890   -9.7253 C   0  0  0  0  0  0  0  0  0  0  0  0
   23.0369    0.8114  -10.5998 N   0  0  0  0  0  0  0  0  0  0  0  0
   21.7859    0.1397  -10.4965 C   0  0  0  0  0  0  0  0  0  0  0  0
   20.5190    0.5924  -10.0859 C   0  0  0  0  0  0  0  0  0  0  0  0
   19.4753   -0.3034  -10.0902 C   0  0  0  0  0  0  0  0  0  0  0  0
   18.2479    0.0783   -9.7077 F   0  0  0  0  0  0  0  0  0  0  0  0
   19.6795   -1.6123  -10.4901 C   0  0  0  0  0  0  0  0  0  0  0  0
   20.9200   -2.0506  -10.8909 C   0  0  0  0  0  0  0  0  0  0  0  0
   21.9992   -1.1564  -10.8951 C   0  0  0  0  0  0  0  0  0  0  0  0
   23.3204   -1.3541  -11.2492 O   0  0  0  0  0  0  0  0  0  0  0  0
  2  1  1  6
  2  3  2  0
  2  4  2  0
  5  2  1  1
  6  5  1  6
  7  6  1  1
  8  7  1  1
  8  9  1  0
 10  9  1  6
  9 11  1  1
 11 12  1  0
 12 13  2  0
 13 14  1  0
 14 15  1  0
 14 16  2  0
 16 17  1  0
 17 18  2  0
 18 19  1  0
 10  5  1  0
 18 12  1  0
  9 19  1  0
M  END
$$$$
