_rank11
     RDKit          3D

 23 26  0  0  0  0  0  0  0  0999 V2000
   25.8773    2.2749   -9.2503 Cl  0  0  0  0  0  0  0  0  0  0  0  0
   26.5762    0.6805   -8.9765 C   0  0  0  0  0  0  0  0  0  0  0  0
   27.6857    0.5050   -8.1794 C   0  0  0  0  0  0  0  0  0  0  0  0
   28.2520   -0.7299   -7.9473 C   0  0  0  0  0  0  0  0  0  0  0  0
   27.6578   -1.8072   -8.5530 C   0  0  0  0  0  0  0  0  0  0  0  0
   26.5454   -1.7016   -9.3629 C   0  0  0  0  0  0  0  0  0  0  0  0
   26.0024   -0.4458   -9.5746 C   0  0  0  0  0  0  0  0  0  0  0  0
   24.8126   -0.2391  -10.4270 C   0  0  2  0  0  0  0  0  0  0  0  0
   23.9747   -1.4687  -10.4482 C   0  0  0  0  0  0  0  0  0  0  0  0
   22.7462   -1.3298  -11.3037 C   0  0  1  0  0  0  0  0  0  0  0  0
   21.6544   -0.5394  -10.6880 C   0  0  0  0  0  0  0  0  0  0  0  0
   20.7041    0.0826  -11.4593 C   0  0  0  0  0  0  0  0  0  0  0  0
   19.6594    0.8402  -10.9084 C   0  0  0  0  0  0  0  0  0  0  0  0
   19.5940    0.9577   -9.5467 C   0  0  0  0  0  0  0  0  0  0  0  0
   20.5537    0.3302   -8.7514 C   0  0  0  0  0  0  0  0  0  0  0  0
   20.3696    0.5682   -6.6700 I   0  0  0  0  0  0  0  0  0  0  0  0
   21.5685   -0.4067   -9.3045 C   0  0  0  0  0  0  0  0  0  0  0  0
   23.0905   -0.7475  -12.5951 N   0  0  0  0  0  0  0  0  0  0  0  0
   24.4135   -0.2654  -12.7970 C   0  0  0  0  0  0  0  0  0  0  0  0
   25.0830    0.0298  -13.9558 N   0  0  0  0  0  0  0  0  0  0  0  0
   26.2901    0.4428  -13.6249 N   0  0  0  0  0  0  0  0  0  0  0  0
   26.4078    0.4201  -12.3151 N   0  0  0  0  0  0  0  0  0  0  0  0
   25.2679   -0.0104  -11.8040 N   0  0  0  0  0  0  0  0  0  0  0  0
  1  2  1  0
  2  3  2  0
  3  4  1  0
  4  5  2  0
  5  6  1  0
  6  7  2  0
  8  7  1  1
  9  8  1  6
  9 10  1  0
 10 11  1  1
 11 12  2  0
 12 13  1  0
 13 14  2  0
 14 15  1  0
 15 16  1  0
 15 17  2  0
 10 18  1  0
 18 19  1  0
 19 20  2  0
 20 21  1  0
 21 22  2  0
 22 23  1  0
  7  2  1  0
 23  8  1  0
 17 11  1  0
 23 19  1  0
M  END
$$$$
