_rank19
     RDKit          3D

 25 27  0  0  0  0  0  0  0  0999 V2000
   28.4722   -2.1160   -9.4864 C   0  0  0  0  0  0  0  0  0  0  0  0
   27.5855   -0.7619   -8.7347 S   0  0  2  0  0  6  0  0  0  0  0  0
   28.5727    0.4174   -8.7959 O   0  0  0  0  0  0  0  0  0  0  0  0
   27.2499   -1.0359   -7.3368 O   0  0  0  0  0  0  0  0  0  0  0  0
   26.1767   -0.3447   -9.6795 C   0  0  0  0  0  0  0  0  0  0  0  0
   24.9051   -0.5897   -9.0868 C   0  0  0  0  0  0  0  0  0  0  0  0
   23.7959   -0.3785   -9.8322 C   0  0  0  0  0  0  0  0  0  0  0  0
   23.8308    0.0538  -11.1266 C   0  0  0  0  0  0  0  0  0  0  0  0
   22.6181    0.2288  -11.8373 O   0  0  0  0  0  0  0  0  0  0  0  0
   21.4509   -0.3184  -11.2876 C   0  0  0  0  0  0  0  0  0  0  0  0
   21.2999   -1.6715  -11.0199 C   0  0  0  0  0  0  0  0  0  0  0  0
   20.1641   -2.1525  -10.4770 C   0  0  0  0  0  0  0  0  0  0  0  0
   19.9958   -3.4974  -10.2054 F   0  0  0  0  0  0  0  0  0  0  0  0
   19.1301   -1.2743  -10.1893 C   0  0  0  0  0  0  0  0  0  0  0  0
   19.2081    0.0673  -10.4338 C   0  0  0  0  0  0  0  0  0  0  0  0
   18.1651    1.0045  -10.1109 C   0  0  0  0  0  0  0  0  0  0  0  0
   17.3502    1.7493   -9.8653 N   0  0  0  0  0  0  0  0  0  0  0  0
   20.4242    0.5400  -11.0035 C   0  0  0  0  0  0  0  0  0  0  0  0
   25.0467    0.2967  -11.7008 C   0  0  0  0  0  0  0  0  0  0  0  0
   26.2451    0.0937  -10.9568 C   0  0  0  0  0  0  0  0  0  0  0  0
   27.3994    0.4833  -11.8495 C   0  0  2  0  0  0  0  0  0  0  0  0
   28.4401    1.0509  -11.1625 O   0  0  0  0  0  0  0  0  0  0  0  0
   26.7022    1.5571  -12.7301 C   0  0  0  0  0  3  0  0  0  0  0  0
   25.4544    0.7397  -13.0651 C   0  0  2  0  0  0  0  0  0  0  0  0
   24.5441    1.4203  -13.7783 F   0  0  0  0  0  0  0  0  0  0  0  0
  1  2  1  1
  2  3  2  0
  2  4  2  0
  2  5  1  6
  5  6  2  0
  6  7  1  0
  7  8  2  0
  8  9  1  0
  9 10  1  0
 10 11  2  0
 11 12  1  0
 12 13  1  0
 12 14  2  0
 14 15  1  0
 15 16  1  0
 16 17  3  0
 15 18  2  0
  8 19  1  0
 19 20  2  0
 20 21  1  0
 21 22  1  1
 21 23  1  0
 23 24  1  0
 24 25  1  1
 20  5  1  0
 18 10  1  0
 24 19  1  0
M  RAD  1  23   2
M  END
$$$$
