_rank2
     RDKit          3D

 25 27  0  0  0  0  0  0  0  0999 V2000
   28.3150    0.9969   -8.1858 C   0  0  0  0  0  0  0  0  0  0  0  0
   27.5411   -0.5814   -8.4939 S   0  0  2  0  0  6  0  0  0  0  0  0
   27.0406   -1.0341   -7.1107 O   0  0  0  0  0  0  0  0  0  0  0  0
   28.4933   -1.5673   -9.0071 O   0  0  0  0  0  0  0  0  0  0  0  0
   26.1562   -0.3970   -9.5425 C   0  0  0  0  0  0  0  0  0  0  0  0
   24.8735   -0.6168   -8.9641 C   0  0  0  0  0  0  0  0  0  0  0  0
   23.7891   -0.5874   -9.7725 C   0  0  0  0  0  0  0  0  0  0  0  0
   23.8594   -0.3621  -11.1171 C   0  0  0  0  0  0  0  0  0  0  0  0
   22.6719   -0.3687  -11.8893 O   0  0  0  0  0  0  0  0  0  0  0  0
   21.4709   -0.6907  -11.2428 C   0  0  0  0  0  0  0  0  0  0  0  0
   21.0002   -1.9901  -11.1190 C   0  0  0  0  0  0  0  0  0  0  0  0
   19.8459   -2.2554  -10.4759 C   0  0  0  0  0  0  0  0  0  0  0  0
   19.3612   -3.5433  -10.3447 F   0  0  0  0  0  0  0  0  0  0  0  0
   19.1184   -1.2053   -9.9364 C   0  0  0  0  0  0  0  0  0  0  0  0
   19.5188    0.0974  -10.0280 C   0  0  0  0  0  0  0  0  0  0  0  0
   18.8021    1.2008   -9.4455 C   0  0  0  0  0  0  0  0  0  0  0  0
   18.2426    2.0754   -8.9970 N   0  0  0  0  0  0  0  0  0  0  0  0
   20.7447    0.3392  -10.7102 C   0  0  0  0  0  0  0  0  0  0  0  0
   25.0858   -0.1445  -11.6790 C   0  0  0  0  0  0  0  0  0  0  0  0
   26.2589   -0.1611  -10.8700 C   0  0  0  0  0  0  0  0  0  0  0  0
   27.4306    0.1478  -11.7715 C   0  0  2  0  0  0  0  0  0  0  0  0
   28.4106    0.8734  -11.1468 O   0  0  0  0  0  0  0  0  0  0  0  0
   26.7204    1.0296  -12.8359 C   0  0  0  0  0  3  0  0  0  0  0  0
   25.5306    0.1013  -13.0809 C   0  0  2  0  0  0  0  0  0  0  0  0
   24.6199    0.6097  -13.9251 F   0  0  0  0  0  0  0  0  0  0  0  0
  1  2  1  1
  2  3  2  0
  2  4  2  0
  2  5  1  6
  5  6  2  0
  6  7  1  0
  7  8  2  0
  8  9  1  0
  9 10  1  0
 10 11  2  0
 11 12  1  0
 12 13  1  0
 12 14  2  0
 14 15  1  0
 15 16  1  0
 16 17  3  0
 15 18  2  0
  8 19  1  0
 19 20  2  0
 20 21  1  0
 21 22  1  1
 21 23  1  0
 23 24  1  0
 24 25  1  6
 20  5  1  0
 18 10  1  0
 24 19  1  0
M  RAD  1  23   2
M  END
$$$$
