_rank7
     RDKit          3D

 23 26  0  0  0  0  0  0  0  0999 V2000
   25.5835    1.1817   -7.8387 Cl  0  0  0  0  0  0  0  0  0  0  0  0
   26.6352   -0.1179   -8.3958 C   0  0  0  0  0  0  0  0  0  0  0  0
   27.7800   -0.4640   -7.7127 C   0  0  0  0  0  0  0  0  0  0  0  0
   28.6197   -1.4764   -8.1248 C   0  0  0  0  0  0  0  0  0  0  0  0
   28.2675   -2.1456   -9.2688 C   0  0  0  0  0  0  0  0  0  0  0  0
   27.1354   -1.8499  -10.0004 C   0  0  0  0  0  0  0  0  0  0  0  0
   26.3143   -0.8268   -9.5577 C   0  0  0  0  0  0  0  0  0  0  0  0
   25.0825   -0.4420  -10.2783 C   0  0  2  0  0  0  0  0  0  0  0  0
   24.4374   -1.6438  -10.8733 C   0  0  0  0  0  0  0  0  0  0  0  0
   23.1773   -1.3231  -11.6282 C   0  0  1  0  0  0  0  0  0  0  0  0
   21.9983   -1.0562  -10.7712 C   0  0  0  0  0  0  0  0  0  0  0  0
   21.5429   -1.9923   -9.8761 C   0  0  0  0  0  0  0  0  0  0  0  0
   20.4284   -1.7724   -9.0523 C   0  0  0  0  0  0  0  0  0  0  0  0
   19.7763   -0.5736   -9.1527 C   0  0  0  0  0  0  0  0  0  0  0  0
   20.2292    0.3864  -10.0586 C   0  0  0  0  0  0  0  0  0  0  0  0
   19.1623    2.1968  -10.1408 I   0  0  0  0  0  0  0  0  0  0  0  0
   21.3196    0.1567  -10.8567 C   0  0  0  0  0  0  0  0  0  0  0  0
   23.3927   -0.1864  -12.5153 N   0  0  0  0  0  0  0  0  0  0  0  0
   24.6223    0.5238  -12.4307 C   0  0  0  0  0  0  0  0  0  0  0  0
   25.2059    1.3955  -13.3125 N   0  0  0  0  0  0  0  0  0  0  0  0
   26.3469    1.7920  -12.7853 N   0  0  0  0  0  0  0  0  0  0  0  0
   26.5051    1.2102  -11.6163 N   0  0  0  0  0  0  0  0  0  0  0  0
   25.4578    0.4360  -11.3937 N   0  0  0  0  0  0  0  0  0  0  0  0
  1  2  1  0
  2  3  2  0
  3  4  1  0
  4  5  2  0
  5  6  1  0
  6  7  2  0
  8  7  1  6
  9  8  1  6
  9 10  1  0
 10 11  1  1
 11 12  2  0
 12 13  1  0
 13 14  2  0
 14 15  1  0
 15 16  1  0
 15 17  2  0
 10 18  1  0
 18 19  1  0
 19 20  2  0
 20 21  1  0
 21 22  2  0
 22 23  1  0
  7  2  1  0
 23  8  1  0
 17 11  1  0
 23 19  1  0
M  END
$$$$
