_rank4
     RDKit          3D

 23 26  0  0  0  0  0  0  0  0999 V2000
   27.1794   -1.4984  -11.3673 Cl  0  0  0  0  0  0  0  0  0  0  0  0
   27.0275   -0.7480   -9.7801 C   0  0  0  0  0  0  0  0  0  0  0  0
   28.0661   -0.7546   -8.8754 C   0  0  0  0  0  0  0  0  0  0  0  0
   27.9753   -0.1747   -7.6283 C   0  0  0  0  0  0  0  0  0  0  0  0
   26.7840    0.4253   -7.3098 C   0  0  0  0  0  0  0  0  0  0  0  0
   25.7046    0.4678   -8.1687 C   0  0  0  0  0  0  0  0  0  0  0  0
   25.8305   -0.1248   -9.4136 C   0  0  0  0  0  0  0  0  0  0  0  0
   24.7265   -0.1274  -10.3964 C   0  0  2  0  0  0  0  0  0  0  0  0
   24.3190   -1.5240  -10.7092 C   0  0  0  0  0  0  0  0  0  0  0  0
   23.1998   -1.6010  -11.7102 C   0  0  1  0  0  0  0  0  0  0  0  0
   21.8608   -1.2831  -11.1609 C   0  0  0  0  0  0  0  0  0  0  0  0
   20.7956   -2.1286  -11.3490 C   0  0  0  0  0  0  0  0  0  0  0  0
   19.5148   -1.8561  -10.8447 C   0  0  0  0  0  0  0  0  0  0  0  0
   19.3304   -0.6988  -10.1384 C   0  0  0  0  0  0  0  0  0  0  0  0
   20.4051    0.1691   -9.9400 C   0  0  0  0  0  0  0  0  0  0  0  0
   20.0238    1.9219   -8.8423 I   0  0  0  0  0  0  0  0  0  0  0  0
   21.6506   -0.1110  -10.4390 C   0  0  0  0  0  0  0  0  0  0  0  0
   23.4727   -0.7268  -12.8446 N   0  0  0  0  0  0  0  0  0  0  0  0
   24.5934    0.1469  -12.7806 C   0  0  0  0  0  0  0  0  0  0  0  0
   25.2498    0.8224  -13.7761 N   0  0  0  0  0  0  0  0  0  0  0  0
   26.2293    1.5041  -13.2168 N   0  0  0  0  0  0  0  0  0  0  0  0
   26.2172    1.2876  -11.9195 N   0  0  0  0  0  0  0  0  0  0  0  0
   25.2228    0.4614  -11.6465 N   0  0  0  0  0  0  0  0  0  0  0  0
  1  2  1  0
  2  3  2  0
  3  4  1  0
  4  5  2  0
  5  6  1  0
  6  7  2  0
  8  7  1  1
  9  8  1  6
  9 10  1  0
 10 11  1  1
 11 12  2  0
 12 13  1  0
 13 14  2  0
 14 15  1  0
 15 16  1  0
 15 17  2  0
 10 18  1  0
 18 19  1  0
 19 20  2  0
 20 21  1  0
 21 22  2  0
 22 23  1  0
  7  2  1  0
 23  8  1  0
 17 11  1  0
 23 19  1  0
M  END
$$$$
