_rank4
     RDKit          3D

 25 27  0  0  0  0  0  0  0  0999 V2000
   27.2368   -0.4181   -6.8631 C   0  0  0  0  0  0  0  0  0  0  0  0
   27.7243   -0.1910   -8.5648 S   0  0  2  0  0  6  0  0  0  0  0  0
   28.4189   -1.5124   -8.9391 O   0  0  0  0  0  0  0  0  0  0  0  0
   28.6736    0.9121   -8.7199 O   0  0  0  0  0  0  0  0  0  0  0  0
   26.3225   -0.0011   -9.5897 C   0  0  0  0  0  0  0  0  0  0  0  0
   25.0466   -0.1282   -8.9699 C   0  0  0  0  0  0  0  0  0  0  0  0
   23.9440   -0.0936   -9.7532 C   0  0  0  0  0  0  0  0  0  0  0  0
   23.9896    0.0527  -11.1098 C   0  0  0  0  0  0  0  0  0  0  0  0
   22.7835    0.0583  -11.8524 O   0  0  0  0  0  0  0  0  0  0  0  0
   21.6228   -0.4102  -11.2220 C   0  0  0  0  0  0  0  0  0  0  0  0
   21.2347   -1.7423  -11.2390 C   0  0  0  0  0  0  0  0  0  0  0  0
   20.1172   -2.1512  -10.6064 C   0  0  0  0  0  0  0  0  0  0  0  0
   19.7146   -3.4736  -10.6144 F   0  0  0  0  0  0  0  0  0  0  0  0
   19.3435   -1.2173   -9.9339 C   0  0  0  0  0  0  0  0  0  0  0  0
   19.6622    0.1100   -9.8830 C   0  0  0  0  0  0  0  0  0  0  0  0
   18.8973    1.0926   -9.1619 C   0  0  0  0  0  0  0  0  0  0  0  0
   18.2968    1.8725   -8.6051 N   0  0  0  0  0  0  0  0  0  0  0  0
   20.8515    0.5046  -10.5588 C   0  0  0  0  0  0  0  0  0  0  0  0
   25.2097    0.1810  -11.7115 C   0  0  0  0  0  0  0  0  0  0  0  0
   26.4013    0.1551  -10.9305 C   0  0  0  0  0  0  0  0  0  0  0  0
   27.5621    0.3580  -11.8752 C   0  0  2  0  0  0  0  0  0  0  0  0
   28.5898    1.0710  -11.3159 O   0  0  0  0  0  0  0  0  0  0  0  0
   26.8652    1.2111  -12.9713 C   0  0  0  0  0  3  0  0  0  0  0  0
   25.6287    0.3271  -13.1352 C   0  0  2  0  0  0  0  0  0  0  0  0
   24.7204    0.8293  -13.9855 F   0  0  0  0  0  0  0  0  0  0  0  0
  1  2  1  1
  2  3  2  0
  2  4  2  0
  2  5  1  6
  5  6  2  0
  6  7  1  0
  7  8  2  0
  8  9  1  0
  9 10  1  0
 10 11  2  0
 11 12  1  0
 12 13  1  0
 12 14  2  0
 14 15  1  0
 15 16  1  0
 16 17  3  0
 15 18  2  0
  8 19  1  0
 19 20  2  0
 20 21  1  0
 21 22  1  1
 21 23  1  0
 23 24  1  0
 24 25  1  6
 20  5  1  0
 18 10  1  0
 24 19  1  0
M  RAD  1  23   2
M  END
$$$$
