_rank1
     RDKit          3D

 23 26  0  0  0  0  0  0  0  0999 V2000
   26.9383   -1.3672  -11.6640 Cl  0  0  0  0  0  0  0  0  0  0  0  0
   26.9352   -0.8544   -9.9780 C   0  0  0  0  0  0  0  0  0  0  0  0
   28.0322   -1.0365   -9.1653 C   0  0  0  0  0  0  0  0  0  0  0  0
   28.0577   -0.6442   -7.8442 C   0  0  0  0  0  0  0  0  0  0  0  0
   26.9234   -0.0504   -7.3528 C   0  0  0  0  0  0  0  0  0  0  0  0
   25.7908    0.1620   -8.1120 C   0  0  0  0  0  0  0  0  0  0  0  0
   25.7997   -0.2445   -9.4354 C   0  0  0  0  0  0  0  0  0  0  0  0
   24.6317   -0.0573  -10.3215 C   0  0  2  0  0  0  0  0  0  0  0  0
   24.1970   -1.3648  -10.8835 C   0  0  0  0  0  0  0  0  0  0  0  0
   23.0121   -1.2468  -11.8015 C   0  0  1  0  0  0  0  0  0  0  0  0
   21.7150   -1.0592  -11.1100 C   0  0  0  0  0  0  0  0  0  0  0  0
   20.9314   -2.1322  -10.7643 C   0  0  0  0  0  0  0  0  0  0  0  0
   19.6974   -1.9891  -10.1116 C   0  0  0  0  0  0  0  0  0  0  0  0
   19.2668   -0.7253   -9.8121 C   0  0  0  0  0  0  0  0  0  0  0  0
   20.0540    0.3737  -10.1581 C   0  0  0  0  0  0  0  0  0  0  0  0
   19.3085    2.2751   -9.6564 I   0  0  0  0  0  0  0  0  0  0  0  0
   21.2574    0.2178  -10.7955 C   0  0  0  0  0  0  0  0  0  0  0  0
   23.2117   -0.1581  -12.7502 N   0  0  0  0  0  0  0  0  0  0  0  0
   24.3385    0.6945  -12.5856 C   0  0  0  0  0  0  0  0  0  0  0  0
   24.9291    1.5640  -13.4650 N   0  0  0  0  0  0  0  0  0  0  0  0
   25.9477    2.1265  -12.8461 N   0  0  0  0  0  0  0  0  0  0  0  0
   26.0226    1.6509  -11.6221 N   0  0  0  0  0  0  0  0  0  0  0  0
   25.0449    0.7777  -11.4563 N   0  0  0  0  0  0  0  0  0  0  0  0
  1  2  1  0
  2  3  2  0
  3  4  1  0
  4  5  2  0
  5  6  1  0
  6  7  2  0
  8  7  1  1
  9  8  1  6
  9 10  1  0
 10 11  1  1
 11 12  2  0
 12 13  1  0
 13 14  2  0
 14 15  1  0
 15 16  1  0
 15 17  2  0
 10 18  1  0
 18 19  1  0
 19 20  2  0
 20 21  1  0
 21 22  2  0
 22 23  1  0
  7  2  1  0
 23  8  1  0
 17 11  1  0
 23 19  1  0
M  END
$$$$
