_rank14
     RDKit          3D

 23 26  0  0  0  0  0  0  0  0999 V2000
   22.6644    0.4621   -7.4778 Cl  0  0  0  0  0  0  0  0  0  0  0  0
   21.2556    0.7425   -8.4986 C   0  0  0  0  0  0  0  0  0  0  0  0
   20.2092    1.5364   -8.0840 C   0  0  0  0  0  0  0  0  0  0  0  0
   19.0964    1.7735   -8.8619 C   0  0  0  0  0  0  0  0  0  0  0  0
   19.0651    1.1764  -10.0960 C   0  0  0  0  0  0  0  0  0  0  0  0
   20.0786    0.3701  -10.5725 C   0  0  0  0  0  0  0  0  0  0  0  0
   21.1819    0.1531   -9.7647 C   0  0  0  0  0  0  0  0  0  0  0  0
   22.3133   -0.6959  -10.1934 C   0  0  2  0  0  0  0  0  0  0  0  0
   23.2359    0.0787  -11.0670 C   0  0  0  0  0  0  0  0  0  0  0  0
   24.4107   -0.7285  -11.5454 C   0  0  1  0  0  0  0  0  0  0  0  0
   25.4697   -0.9345  -10.5295 C   0  0  0  0  0  0  0  0  0  0  0  0
   25.6672   -2.1617   -9.9467 C   0  0  0  0  0  0  0  0  0  0  0  0
   26.6586   -2.3897   -8.9802 C   0  0  0  0  0  0  0  0  0  0  0  0
   27.4553   -1.3404   -8.6107 C   0  0  0  0  0  0  0  0  0  0  0  0
   27.2649   -0.0879   -9.1958 C   0  0  0  0  0  0  0  0  0  0  0  0
   28.5379    1.4622   -8.5638 I   0  0  0  0  0  0  0  0  0  0  0  0
   26.2919    0.1192  -10.1388 C   0  0  0  0  0  0  0  0  0  0  0  0
   23.9665   -2.0241  -12.0448 N   0  0  0  0  0  0  0  0  0  0  0  0
   22.6043   -2.3942  -11.8691 C   0  0  0  0  0  0  0  0  0  0  0  0
   21.8628   -3.3679  -12.4859 N   0  0  0  0  0  0  0  0  0  0  0  0
   20.6455   -3.3209  -11.9829 N   0  0  0  0  0  0  0  0  0  0  0  0
   20.5899   -2.3648  -11.0813 N   0  0  0  0  0  0  0  0  0  0  0  0
   21.7801   -1.7959  -11.0066 N   0  0  0  0  0  0  0  0  0  0  0  0
  1  2  1  0
  2  3  2  0
  3  4  1  0
  4  5  2  0
  5  6  1  0
  6  7  2  0
  8  7  1  6
  9  8  1  6
  9 10  1  0
 10 11  1  1
 11 12  2  0
 12 13  1  0
 13 14  2  0
 14 15  1  0
 15 16  1  0
 15 17  2  0
 10 18  1  0
 18 19  1  0
 19 20  2  0
 20 21  1  0
 21 22  2  0
 22 23  1  0
  7  2  1  0
 23  8  1  0
 17 11  1  0
 23 19  1  0
M  END
$$$$
