_rank20
     RDKit          3D

 23 26  0  0  0  0  0  0  0  0999 V2000
   23.4421   -0.1074   -7.3195 Cl  0  0  0  0  0  0  0  0  0  0  0  0
   21.8392    0.2639   -7.9507 C   0  0  0  0  0  0  0  0  0  0  0  0
   20.8322    0.7317   -7.1357 C   0  0  0  0  0  0  0  0  0  0  0  0
   19.5704    1.0310   -7.6026 C   0  0  0  0  0  0  0  0  0  0  0  0
   19.3452    0.8424   -8.9422 C   0  0  0  0  0  0  0  0  0  0  0  0
   20.3089    0.3771   -9.8135 C   0  0  0  0  0  0  0  0  0  0  0  0
   21.5656    0.0862   -9.3105 C   0  0  0  0  0  0  0  0  0  0  0  0
   22.6575   -0.4167  -10.1703 C   0  0  2  0  0  0  0  0  0  0  0  0
   23.4326    0.7206  -10.7362 C   0  0  0  0  0  0  0  0  0  0  0  0
   24.5597    0.2796  -11.6282 C   0  0  1  0  0  0  0  0  0  0  0  0
   25.7487   -0.2340  -10.9081 C   0  0  0  0  0  0  0  0  0  0  0  0
   26.1237   -1.5512  -11.0029 C   0  0  0  0  0  0  0  0  0  0  0  0
   27.2418   -2.0699  -10.3322 C   0  0  0  0  0  0  0  0  0  0  0  0
   27.9815   -1.2205   -9.5553 C   0  0  0  0  0  0  0  0  0  0  0  0
   27.6110    0.1208   -9.4507 C   0  0  0  0  0  0  0  0  0  0  0  0
   28.8093    1.3480   -8.2338 I   0  0  0  0  0  0  0  0  0  0  0  0
   26.5158    0.6126  -10.1121 C   0  0  0  0  0  0  0  0  0  0  0  0
   24.0954   -0.7317  -12.5700 N   0  0  0  0  0  0  0  0  0  0  0  0
   22.7805   -1.2533  -12.4203 C   0  0  0  0  0  0  0  0  0  0  0  0
   21.9960   -1.9487  -13.3030 N   0  0  0  0  0  0  0  0  0  0  0  0
   20.8542   -2.2124  -12.6998 N   0  0  0  0  0  0  0  0  0  0  0  0
   20.8868   -1.7155  -11.4824 N   0  0  0  0  0  0  0  0  0  0  0  0
   22.0577   -1.1296  -11.3051 N   0  0  0  0  0  0  0  0  0  0  0  0
  1  2  1  0
  2  3  2  0
  3  4  1  0
  4  5  2  0
  5  6  1  0
  6  7  2  0
  8  7  1  1
  9  8  1  6
  9 10  1  0
 10 11  1  1
 11 12  2  0
 12 13  1  0
 13 14  2  0
 14 15  1  0
 15 16  1  0
 15 17  2  0
 10 18  1  0
 18 19  1  0
 19 20  2  0
 20 21  1  0
 21 22  2  0
 22 23  1  0
  7  2  1  0
 23  8  1  0
 17 11  1  0
 23 19  1  0
M  END
$$$$
