_rank12
     RDKit          3D

 23 26  0  0  0  0  0  0  0  0999 V2000
   21.2757    0.0326   -7.3535 Cl  0  0  0  0  0  0  0  0  0  0  0  0
   20.2971    0.6179   -8.6971 C   0  0  0  0  0  0  0  0  0  0  0  0
   19.1108    1.2861   -8.4897 C   0  0  0  0  0  0  0  0  0  0  0  0
   18.3265    1.7555   -9.5213 C   0  0  0  0  0  0  0  0  0  0  0  0
   18.7793    1.5287  -10.7958 C   0  0  0  0  0  0  0  0  0  0  0  0
   19.9577    0.8666  -11.0736 C   0  0  0  0  0  0  0  0  0  0  0  0
   20.7209    0.4084  -10.0132 C   0  0  0  0  0  0  0  0  0  0  0  0
   21.9961   -0.3106  -10.2174 C   0  0  2  0  0  0  0  0  0  0  0  0
   22.8397    0.4091  -11.2097 C   0  0  0  0  0  0  0  0  0  0  0  0
   24.1542   -0.2727  -11.4702 C   0  0  1  0  0  0  0  0  0  0  0  0
   25.1658   -0.0854  -10.4037 C   0  0  0  0  0  0  0  0  0  0  0  0
   25.1774    1.0451   -9.6248 C   0  0  0  0  0  0  0  0  0  0  0  0
   26.1226    1.2546   -8.6090 C   0  0  0  0  0  0  0  0  0  0  0  0
   27.0663    0.2874   -8.3942 C   0  0  0  0  0  0  0  0  0  0  0  0
   27.0654   -0.8664   -9.1790 C   0  0  0  0  0  0  0  0  0  0  0  0
   28.5544   -2.2952   -8.7739 I   0  0  0  0  0  0  0  0  0  0  0  0
   26.1353   -1.0566  -10.1677 C   0  0  0  0  0  0  0  0  0  0  0  0
   23.9506   -1.6990  -11.6930 N   0  0  0  0  0  0  0  0  0  0  0  0
   22.6547   -2.2460  -11.4813 C   0  0  0  0  0  0  0  0  0  0  0  0
   22.1152   -3.4356  -11.8963 N   0  0  0  0  0  0  0  0  0  0  0  0
   20.8761   -3.4887  -11.4503 N   0  0  0  0  0  0  0  0  0  0  0  0
   20.6146   -2.3898  -10.7763 N   0  0  0  0  0  0  0  0  0  0  0  0
   21.6941   -1.6279  -10.7911 N   0  0  0  0  0  0  0  0  0  0  0  0
  1  2  1  0
  2  3  2  0
  3  4  1  0
  4  5  2  0
  5  6  1  0
  6  7  2  0
  8  7  1  6
  9  8  1  6
  9 10  1  0
 10 11  1  1
 11 12  2  0
 12 13  1  0
 13 14  2  0
 14 15  1  0
 15 16  1  0
 15 17  2  0
 10 18  1  0
 18 19  1  0
 19 20  2  0
 20 21  1  0
 21 22  2  0
 22 23  1  0
  7  2  1  0
 23  8  1  0
 17 11  1  0
 23 19  1  0
M  END
$$$$
