_rank10
     RDKit          3D

 23 26  0  0  0  0  0  0  0  0999 V2000
   24.9888    0.5148   -7.7719 Cl  0  0  0  0  0  0  0  0  0  0  0  0
   26.3217   -0.3320   -8.5539 C   0  0  0  0  0  0  0  0  0  0  0  0
   27.4716   -0.6581   -7.8693 C   0  0  0  0  0  0  0  0  0  0  0  0
   28.5285   -1.3207   -8.4553 C   0  0  0  0  0  0  0  0  0  0  0  0
   28.3932   -1.6537   -9.7788 C   0  0  0  0  0  0  0  0  0  0  0  0
   27.2693   -1.3572  -10.5226 C   0  0  0  0  0  0  0  0  0  0  0  0
   26.2264   -0.6907   -9.9022 C   0  0  0  0  0  0  0  0  0  0  0  0
   24.9858   -0.3328  -10.6215 C   0  0  2  0  0  0  0  0  0  0  0  0
   24.4099   -1.5345  -11.2838 C   0  0  0  0  0  0  0  0  0  0  0  0
   23.1446   -1.2404  -12.0410 C   0  0  1  0  0  0  0  0  0  0  0  0
   21.9430   -1.0753  -11.1897 C   0  0  0  0  0  0  0  0  0  0  0  0
   21.3476   -2.1532  -10.5828 C   0  0  0  0  0  0  0  0  0  0  0  0
   20.2080   -2.0318   -9.7732 C   0  0  0  0  0  0  0  0  0  0  0  0
   19.6764   -0.7848   -9.5873 C   0  0  0  0  0  0  0  0  0  0  0  0
   20.2723    0.3192  -10.1986 C   0  0  0  0  0  0  0  0  0  0  0  0
   19.3836    2.1938   -9.8539 I   0  0  0  0  0  0  0  0  0  0  0  0
   21.3855    0.1845  -10.9868 C   0  0  0  0  0  0  0  0  0  0  0  0
   23.3132   -0.0519  -12.8684 N   0  0  0  0  0  0  0  0  0  0  0  0
   24.5041    0.7137  -12.7310 C   0  0  0  0  0  0  0  0  0  0  0  0
   25.0537    1.6560  -13.5606 N   0  0  0  0  0  0  0  0  0  0  0  0
   26.1666    2.0825  -12.9978 N   0  0  0  0  0  0  0  0  0  0  0  0
   26.3395    1.4524  -11.8562 N   0  0  0  0  0  0  0  0  0  0  0  0
   25.3301    0.6168  -11.6872 N   0  0  0  0  0  0  0  0  0  0  0  0
  1  2  1  0
  2  3  2  0
  3  4  1  0
  4  5  2  0
  5  6  1  0
  6  7  2  0
  8  7  1  6
  9  8  1  6
  9 10  1  0
 10 11  1  1
 11 12  2  0
 12 13  1  0
 13 14  2  0
 14 15  1  0
 15 16  1  0
 15 17  2  0
 10 18  1  0
 18 19  1  0
 19 20  2  0
 20 21  1  0
 21 22  2  0
 22 23  1  0
  7  2  1  0
 23  8  1  0
 17 11  1  0
 23 19  1  0
M  END
$$$$
