_rank18
     RDKit          3D

 25 27  0  0  0  0  0  0  0  0999 V2000
   27.9282   -0.0129   -7.2590 C   0  0  0  0  0  0  0  0  0  0  0  0
   27.5622   -1.0099   -8.6932 S   0  0  2  0  0  6  0  0  0  0  0  0
   27.2093   -2.3914   -8.1139 O   0  0  0  0  0  0  0  0  0  0  0  0
   28.7201   -1.1414   -9.5787 O   0  0  0  0  0  0  0  0  0  0  0  0
   26.1591   -0.3947   -9.5324 C   0  0  0  0  0  0  0  0  0  0  0  0
   24.9345   -0.3616   -8.8062 C   0  0  0  0  0  0  0  0  0  0  0  0
   23.8085    0.0077   -9.4592 C   0  0  0  0  0  0  0  0  0  0  0  0
   23.7829    0.3469  -10.7813 C   0  0  0  0  0  0  0  0  0  0  0  0
   22.5529    0.7022  -11.3872 O   0  0  0  0  0  0  0  0  0  0  0  0
   21.3753    0.1765  -10.8386 C   0  0  0  0  0  0  0  0  0  0  0  0
   20.4196    0.9566  -10.2034 C   0  0  0  0  0  0  0  0  0  0  0  0
   19.2940    0.4104   -9.7027 C   0  0  0  0  0  0  0  0  0  0  0  0
   18.3323    1.1720   -9.0655 F   0  0  0  0  0  0  0  0  0  0  0  0
   19.0974   -0.9571   -9.8228 C   0  0  0  0  0  0  0  0  0  0  0  0
   19.9995   -1.7848  -10.4286 C   0  0  0  0  0  0  0  0  0  0  0  0
   19.8028   -3.2000  -10.5989 C   0  0  0  0  0  0  0  0  0  0  0  0
   19.6606   -4.3141  -10.7314 N   0  0  0  0  0  0  0  0  0  0  0  0
   21.1744   -1.1722  -10.9494 C   0  0  0  0  0  0  0  0  0  0  0  0
   24.9546    0.3232  -11.4837 C   0  0  0  0  0  0  0  0  0  0  0  0
   26.1691   -0.0548  -10.8411 C   0  0  0  0  0  0  0  0  0  0  0  0
   27.2732    0.0576  -11.8655 C   0  0  2  0  0  0  0  0  0  0  0  0
   28.4660    0.4613  -11.3255 O   0  0  0  0  0  0  0  0  0  0  0  0
   26.6910    1.1877  -12.7593 C   0  0  0  0  0  3  0  0  0  0  0  0
   25.2881    0.5991  -12.9108 C   0  0  2  0  0  0  0  0  0  0  0  0
   24.4444    1.3934  -13.5874 F   0  0  0  0  0  0  0  0  0  0  0  0
  1  2  1  1
  2  3  2  0
  2  4  2  0
  2  5  1  6
  5  6  2  0
  6  7  1  0
  7  8  2  0
  8  9  1  0
  9 10  1  0
 10 11  2  0
 11 12  1  0
 12 13  1  0
 12 14  2  0
 14 15  1  0
 15 16  1  0
 16 17  3  0
 15 18  2  0
  8 19  1  0
 19 20  2  0
 20 21  1  0
 21 22  1  1
 21 23  1  0
 23 24  1  0
 24 25  1  1
 20  5  1  0
 18 10  1  0
 24 19  1  0
M  RAD  1  23   2
M  END
$$$$
