_rank16
     RDKit          3D

 25 27  0  0  0  0  0  0  0  0999 V2000
   28.4776   -2.0592   -9.2160 C   0  0  0  0  0  0  0  0  0  0  0  0
   27.5095   -0.7410   -8.5018 S   0  0  2  0  0  6  0  0  0  0  0  0
   28.4456    0.4800   -8.5405 O   0  0  0  0  0  0  0  0  0  0  0  0
   27.1424   -1.0217   -7.1131 O   0  0  0  0  0  0  0  0  0  0  0  0
   26.1142   -0.3914   -9.4930 C   0  0  0  0  0  0  0  0  0  0  0  0
   24.8350   -0.5489   -8.8871 C   0  0  0  0  0  0  0  0  0  0  0  0
   23.7339   -0.3905   -9.6572 C   0  0  0  0  0  0  0  0  0  0  0  0
   23.7839   -0.0912  -10.9882 C   0  0  0  0  0  0  0  0  0  0  0  0
   22.5785    0.0370  -11.7208 O   0  0  0  0  0  0  0  0  0  0  0  0
   21.3777   -0.2711  -11.0672 C   0  0  0  0  0  0  0  0  0  0  0  0
   20.6465    0.6603  -10.3438 C   0  0  0  0  0  0  0  0  0  0  0  0
   19.4884    0.3233   -9.7427 C   0  0  0  0  0  0  0  0  0  0  0  0
   18.7481    1.2375   -9.0167 F   0  0  0  0  0  0  0  0  0  0  0  0
   19.0289   -0.9809   -9.8484 C   0  0  0  0  0  0  0  0  0  0  0  0
   19.7013   -1.9496  -10.5378 C   0  0  0  0  0  0  0  0  0  0  0  0
   19.2282   -3.2995  -10.6937 C   0  0  0  0  0  0  0  0  0  0  0  0
   18.8530   -4.3607  -10.8042 N   0  0  0  0  0  0  0  0  0  0  0  0
   20.9182   -1.5562  -11.1632 C   0  0  0  0  0  0  0  0  0  0  0  0
   25.0073    0.0672  -11.5758 C   0  0  0  0  0  0  0  0  0  0  0  0
   26.1977   -0.0851  -10.8074 C   0  0  0  0  0  0  0  0  0  0  0  0
   27.3641    0.1885  -11.7269 C   0  0  2  0  0  0  0  0  0  0  0  0
   28.4137    0.8003  -11.0935 O   0  0  0  0  0  0  0  0  0  0  0  0
   26.6942    1.1828  -12.7155 C   0  0  0  0  0  3  0  0  0  0  0  0
   25.4305    0.3623  -12.9749 C   0  0  2  0  0  0  0  0  0  0  0  0
   24.5382    0.9868  -13.7588 F   0  0  0  0  0  0  0  0  0  0  0  0
  1  2  1  1
  2  3  2  0
  2  4  2  0
  2  5  1  6
  5  6  2  0
  6  7  1  0
  7  8  2  0
  8  9  1  0
  9 10  1  0
 10 11  2  0
 11 12  1  0
 12 13  1  0
 12 14  2  0
 14 15  1  0
 15 16  1  0
 16 17  3  0
 15 18  2  0
  8 19  1  0
 19 20  2  0
 20 21  1  0
 21 22  1  1
 21 23  1  0
 23 24  1  0
 24 25  1  1
 20  5  1  0
 18 10  1  0
 24 19  1  0
M  RAD  1  23   2
M  END
$$$$
