
     RDKit          3D

 36 39  0  0  0  0  0  0  0  0999 V2000
   -6.1545   -1.8239   -0.3171 Br  0  0  0  0  0  0  0  0  0  0  0  0
   -4.7171   -0.7705    0.3701 C   0  0  0  0  0  0  0  0  0  0  0  0
   -4.7659   -0.2943    1.6837 C   0  0  0  0  0  0  0  0  0  0  0  0
   -3.7115    0.4693    2.1901 C   0  0  0  0  0  0  0  0  0  0  0  0
   -2.6076    0.7623    1.3844 C   0  0  0  0  0  0  0  0  0  0  0  0
   -2.5536    0.2995    0.0565 C   0  0  0  0  0  0  0  0  0  0  0  0
   -1.3487    0.5868   -0.8120 C   0  0  2  0  0  0  0  0  0  0  0  0
   -0.1536   -0.3100   -0.3871 C   0  0  0  0  0  0  0  0  0  0  0  0
    1.1366    0.0439   -1.1697 C   0  0  2  0  0  0  0  0  0  0  0  0
    2.3344   -0.6600   -0.5690 C   0  0  0  0  0  0  0  0  0  0  0  0
    2.8950   -1.7752   -1.2152 C   0  0  0  0  0  0  0  0  0  0  0  0
    3.9860   -2.4435   -0.6515 C   0  0  0  0  0  0  0  0  0  0  0  0
    4.5216   -2.0114    0.5643 C   0  0  0  0  0  0  0  0  0  0  0  0
    3.9648   -0.9108    1.2223 C   0  0  0  0  0  0  0  0  0  0  0  0
    4.6912   -0.3263    2.8890 Br  0  0  0  0  0  0  0  0  0  0  0  0
    2.8730   -0.2395    0.6616 C   0  0  0  0  0  0  0  0  0  0  0  0
    1.3254    1.4943   -1.1686 N   0  0  0  0  0  0  0  0  0  0  0  0
    2.3996    2.1752   -1.5222 N   0  0  0  0  0  0  0  0  0  0  0  0
    2.0840    3.4661   -1.5393 N   0  0  0  0  0  0  0  0  0  0  0  0
    0.8011    3.6356   -1.2291 N   0  0  0  0  0  0  0  0  0  0  0  0
    0.3533    2.3887   -1.0113 C   0  0  0  0  0  0  0  0  0  0  0  0
   -0.9952    2.0127   -0.7457 N   0  0  0  0  0  0  0  0  0  0  0  0
   -3.6137   -0.4792   -0.4399 C   0  0  0  0  0  0  0  0  0  0  0  0
   -5.6175   -0.5188    2.3130 H   0  0  0  0  0  0  0  0  0  0  0  0
   -3.7480    0.8319    3.2092 H   0  0  0  0  0  0  0  0  0  0  0  0
   -1.7946    1.3483    1.7949 H   0  0  0  0  0  0  0  0  0  0  0  0
   -1.5906    0.3515   -1.8725 H   0  0  0  0  0  0  0  0  0  0  0  0
    0.0280   -0.1761    0.7025 H   0  0  0  0  0  0  0  0  0  0  0  0
   -0.4092   -1.3782   -0.5621 H   0  0  0  0  0  0  0  0  0  0  0  0
    0.9983   -0.2779   -2.2260 H   0  0  0  0  0  0  0  0  0  0  0  0
    2.4884   -2.1288   -2.1544 H   0  0  0  0  0  0  0  0  0  0  0  0
    4.4150   -3.2993   -1.1566 H   0  0  0  0  0  0  0  0  0  0  0  0
    5.3658   -2.5339    0.9956 H   0  0  0  0  0  0  0  0  0  0  0  0
    2.4448    0.6077    1.1831 H   0  0  0  0  0  0  0  0  0  0  0  0
   -1.7410    2.7447   -0.7383 H   0  0  0  0  0  0  0  0  0  0  0  0
   -3.5838   -0.8609   -1.4529 H   0  0  0  0  0  0  0  0  0  0  0  0
  1  2  1  0
  2  3  2  0
  3  4  1  0
  4  5  2  0
  5  6  1  0
  6  7  1  0
  7  8  1  0
  8  9  1  0
  9 10  1  0
 10 11  2  0
 11 12  1  0
 12 13  2  0
 13 14  1  0
 14 15  1  0
 14 16  2  0
  9 17  1  0
 17 18  1  0
 18 19  2  0
 19 20  1  0
 20 21  2  0
 21 22  1  0
  6 23  2  0
 23  2  1  0
 22  7  1  0
 16 10  1  0
 21 17  1  0
  3 24  1  0
  4 25  1  0
  5 26  1  0
  7 27  1  6
  8 28  1  0
  8 29  1  0
  9 30  1  6
 11 31  1  0
 12 32  1  0
 13 33  1  0
 16 34  1  0
 22 35  1  0
 23 36  1  0
M  END
$$$$
