
     RDKit          3D

 36 39  0  0  0  0  0  0  0  0999 V2000
   -2.8810   -1.8639   -0.6451 F   0  0  0  0  0  0  0  0  0  0  0  0
   -3.2135   -0.5790   -0.3596 C   0  0  0  0  0  0  0  0  0  0  0  0
   -4.5398   -0.1824   -0.5308 C   0  0  0  0  0  0  0  0  0  0  0  0
   -4.9179    1.1334   -0.2788 C   0  0  0  0  0  0  0  0  0  0  0  0
   -3.9704    2.0721    0.1337 C   0  0  0  0  0  0  0  0  0  0  0  0
   -4.5565    3.8736    0.4344 Br  0  0  0  0  0  0  0  0  0  0  0  0
   -2.6261    1.6901    0.3105 C   0  0  0  0  0  0  0  0  0  0  0  0
   -1.4455    2.9184    0.7816 Cl  0  0  0  0  0  0  0  0  0  0  0  0
   -2.2399    0.3420    0.0895 C   0  0  0  0  0  0  0  0  0  0  0  0
   -0.7917   -0.1018    0.2521 C   0  0  2  0  0  0  0  0  0  0  0  0
   -0.0940   -0.1955   -1.1341 C   0  0  0  0  0  0  0  0  0  0  0  0
    1.2946   -0.9016   -1.0560 C   0  0  1  0  0  0  0  0  0  0  0  0
    2.4032   -0.1020   -0.3682 C   0  0  0  0  0  0  0  0  0  0  0  0
    3.6259   -0.7451   -0.0843 C   0  0  0  0  0  0  0  0  0  0  0  0
    4.6803   -0.0512    0.5150 C   0  0  0  0  0  0  0  0  0  0  0  0
    4.5434    1.3016    0.8231 C   0  0  0  0  0  0  0  0  0  0  0  0
    3.3554    1.9680    0.5194 C   0  0  0  0  0  0  0  0  0  0  0  0
    3.1770    3.8272    0.9201 Br  0  0  0  0  0  0  0  0  0  0  0  0
    2.2974    1.2792   -0.0838 C   0  0  0  0  0  0  0  0  0  0  0  0
    1.1405   -2.2105   -0.4011 N   0  0  0  0  0  0  0  0  0  0  0  0
    0.1956   -2.3385    0.6582 C   0  0  0  0  0  0  0  0  0  0  0  0
    0.1157   -3.3525    1.5345 N   0  0  0  0  0  0  0  0  0  0  0  0
   -0.8512   -2.9787    2.3692 N   0  0  0  0  0  0  0  0  0  0  0  0
   -1.3339   -1.7905    2.0199 N   0  0  0  0  0  0  0  0  0  0  0  0
   -0.6989   -1.3935    0.9329 N   0  0  0  0  0  0  0  0  0  0  0  0
   -5.2788   -0.8984   -0.8671 H   0  0  0  0  0  0  0  0  0  0  0  0
   -5.9505    1.4275   -0.4168 H   0  0  0  0  0  0  0  0  0  0  0  0
   -0.2346    0.6181    0.8811 H   0  0  0  0  0  0  0  0  0  0  0  0
   -0.0183    0.8028   -1.6129 H   0  0  0  0  0  0  0  0  0  0  0  0
   -0.7311   -0.8039   -1.8133 H   0  0  0  0  0  0  0  0  0  0  0  0
    1.6295   -1.0767   -2.1018 H   0  0  0  0  0  0  0  0  0  0  0  0
    3.7713   -1.7887   -0.3304 H   0  0  0  0  0  0  0  0  0  0  0  0
    5.6080   -0.5635    0.7354 H   0  0  0  0  0  0  0  0  0  0  0  0
    5.3639    1.8336    1.2872 H   0  0  0  0  0  0  0  0  0  0  0  0
    1.4083    1.8421   -0.3186 H   0  0  0  0  0  0  0  0  0  0  0  0
    1.7638   -3.0115   -0.6478 H   0  0  0  0  0  0  0  0  0  0  0  0
  1  2  1  0
  2  3  2  0
  3  4  1  0
  4  5  2  0
  5  6  1  0
  5  7  1  0
  7  8  1  0
  7  9  2  0
  9 10  1  0
 10 11  1  0
 11 12  1  0
 12 13  1  0
 13 14  2  0
 14 15  1  0
 15 16  2  0
 16 17  1  0
 17 18  1  0
 17 19  2  0
 12 20  1  0
 20 21  1  0
 21 22  2  0
 22 23  1  0
 23 24  2  0
 24 25  1  0
  9  2  1  0
 25 10  1  0
 19 13  1  0
 25 21  1  0
  3 26  1  0
  4 27  1  0
 10 28  1  1
 11 29  1  0
 11 30  1  0
 12 31  1  6
 14 32  1  0
 15 33  1  0
 16 34  1  0
 19 35  1  0
 20 36  1  0
M  END
$$$$
