
     RDKit          3D

 30 32  0  0  0  0  0  0  0  0999 V2000
    2.0768   -0.9933   -2.3881 O   0  0  0  0  0  0  0  0  0  0  0  0
    2.8977   -1.0899   -1.4527 N   0  0  0  0  0  0  0  0  0  0  0  0
    4.1870   -1.4740   -1.7410 O   0  0  0  0  0  0  0  0  0  0  0  0
    2.5395   -0.6901   -0.1171 C   0  0  0  0  0  0  0  0  0  0  0  0
    1.1970   -0.7420    0.3620 C   0  0  0  0  0  0  0  0  0  0  0  0
    0.1567   -1.3262   -0.4395 N   0  0  0  0  0  0  0  0  0  0  0  0
   -1.1731   -0.7871   -0.5453 C   0  0  0  0  0  0  0  0  0  0  0  0
   -2.2326   -1.6334   -0.9007 C   0  0  0  0  0  0  0  0  0  0  0  0
   -3.5308   -1.1317   -1.0112 C   0  0  0  0  0  0  0  0  0  0  0  0
   -3.7814    0.2240   -0.7889 C   0  0  0  0  0  0  0  0  0  0  0  0
   -2.7271    1.0998   -0.4783 C   0  0  0  0  0  0  0  0  0  0  0  0
   -2.9979    2.5577   -0.2024 C   0  0  0  0  0  0  0  0  0  0  0  0
   -4.1140    2.9913   -0.8972 F   0  0  0  0  0  0  0  0  0  0  0  0
   -3.2153    2.7313    1.1517 F   0  0  0  0  0  0  0  0  0  0  0  0
   -1.9197    3.3346   -0.5894 F   0  0  0  0  0  0  0  0  0  0  0  0
   -1.4263    0.5825   -0.3424 C   0  0  0  0  0  0  0  0  0  0  0  0
    0.9011   -0.3031    1.6830 C   0  0  0  0  0  0  0  0  0  0  0  0
    1.9113    0.1962    2.5232 C   0  0  0  0  0  0  0  0  0  0  0  0
    3.2029    0.2272    2.0183 C   0  0  0  0  0  0  0  0  0  0  0  0
    4.3247    0.6604    2.6095 N   0  0  0  0  0  0  0  0  0  0  0  0
    5.2553    0.4884    1.7038 O   0  0  0  0  0  0  0  0  0  0  0  0
    4.8226   -0.0199    0.5763 N   0  0  0  0  0  0  0  0  0  0  0  0
    3.5062   -0.1965    0.7674 C   0  0  0  0  0  0  0  0  0  0  0  0
    0.3678   -2.2238   -0.9320 H   0  0  0  0  0  0  0  0  0  0  0  0
   -2.0540   -2.6870   -1.0750 H   0  0  0  0  0  0  0  0  0  0  0  0
   -4.3462   -1.7967   -1.2652 H   0  0  0  0  0  0  0  0  0  0  0  0
   -4.7985    0.5876   -0.8637 H   0  0  0  0  0  0  0  0  0  0  0  0
   -0.6107    1.2483   -0.0911 H   0  0  0  0  0  0  0  0  0  0  0  0
   -0.1099   -0.3689    2.0642 H   0  0  0  0  0  0  0  0  0  0  0  0
    1.6909    0.5342    3.5274 H   0  0  0  0  0  0  0  0  0  0  0  0
  1  2  2  0
  2  3  1  0
  2  4  1  0
  4  5  2  0
  5  6  1  0
  6  7  1  0
  7  8  2  0
  8  9  1  0
  9 10  2  0
 10 11  1  0
 11 12  1  0
 12 13  1  0
 12 14  1  0
 12 15  1  0
 11 16  2  0
  5 17  1  0
 17 18  2  0
 18 19  1  0
 19 20  2  0
 20 21  1  0
 21 22  1  0
 22 23  2  0
 23  4  1  0
 16  7  1  0
 23 19  1  0
  6 24  1  0
  8 25  1  0
  9 26  1  0
 10 27  1  0
 16 28  1  0
 17 29  1  0
 18 30  1  0
M  CHG  2   2   1   3  -1
M  END
$$$$
