
     RDKit          3D

 30 32  0  0  0  0  0  0  0  0999 V2000
    0.3916    0.3798    2.6567 O   0  0  0  0  0  0  0  0  0  0  0  0
    1.4294   -0.3004    2.5203 N   0  0  0  0  0  0  0  0  0  0  0  0
    1.9543   -0.9387    3.6202 O   0  0  0  0  0  0  0  0  0  0  0  0
    2.1667   -0.2622    1.2870 C   0  0  0  0  0  0  0  0  0  0  0  0
    1.5250   -0.2016    0.0130 C   0  0  0  0  0  0  0  0  0  0  0  0
    0.0933   -0.3230   -0.0883 N   0  0  0  0  0  0  0  0  0  0  0  0
   -0.6656    0.1765   -1.2359 C   0  0  0  0  0  0  0  0  0  0  0  0
   -2.1340    0.2324   -0.9116 C   0  0  0  0  0  0  0  0  0  0  0  0
   -2.6659    1.3441   -0.2382 C   0  0  0  0  0  0  0  0  0  0  0  0
   -4.0225    1.3803    0.0992 C   0  0  0  0  0  0  0  0  0  0  0  0
   -4.5315    2.4589    0.7439 F   0  0  0  0  0  0  0  0  0  0  0  0
   -4.8534    0.3032   -0.2228 C   0  0  0  0  0  0  0  0  0  0  0  0
   -4.3278   -0.8150   -0.8788 C   0  0  0  0  0  0  0  0  0  0  0  0
   -5.3688   -2.1714   -1.2706 Cl  0  0  0  0  0  0  0  0  0  0  0  0
   -2.9704   -0.8538   -1.2175 C   0  0  0  0  0  0  0  0  0  0  0  0
    2.3198   -0.0866   -1.1653 C   0  0  0  0  0  0  0  0  0  0  0  0
    3.7235   -0.0500   -1.0931 C   0  0  0  0  0  0  0  0  0  0  0  0
    4.3009   -0.1354    0.1646 C   0  0  0  0  0  0  0  0  0  0  0  0
    5.5989   -0.1062    0.4963 N   0  0  0  0  0  0  0  0  0  0  0  0
    5.6007   -0.1891    1.8036 O   0  0  0  0  0  0  0  0  0  0  0  0
    4.4080   -0.2667    2.3403 N   0  0  0  0  0  0  0  0  0  0  0  0
    3.5654   -0.2389    1.2965 C   0  0  0  0  0  0  0  0  0  0  0  0
   -0.4234   -0.8230    0.6703 H   0  0  0  0  0  0  0  0  0  0  0  0
   -0.3107    1.1964   -1.5015 H   0  0  0  0  0  0  0  0  0  0  0  0
   -0.4913   -0.4840   -2.1126 H   0  0  0  0  0  0  0  0  0  0  0  0
   -2.0290    2.1794    0.0260 H   0  0  0  0  0  0  0  0  0  0  0  0
   -5.9027    0.3351    0.0417 H   0  0  0  0  0  0  0  0  0  0  0  0
   -2.5684   -1.7276   -1.7156 H   0  0  0  0  0  0  0  0  0  0  0  0
    1.8582   -0.0479   -2.1423 H   0  0  0  0  0  0  0  0  0  0  0  0
    4.3297    0.0355   -1.9856 H   0  0  0  0  0  0  0  0  0  0  0  0
  1  2  2  0
  2  3  1  0
  2  4  1  0
  4  5  2  0
  5  6  1  0
  6  7  1  0
  7  8  1  0
  8  9  2  0
  9 10  1  0
 10 11  1  0
 10 12  2  0
 12 13  1  0
 13 14  1  0
 13 15  2  0
  5 16  1  0
 16 17  2  0
 17 18  1  0
 18 19  2  0
 19 20  1  0
 20 21  1  0
 21 22  2  0
 22  4  1  0
 15  8  1  0
 22 18  1  0
  6 23  1  0
  7 24  1  0
  7 25  1  0
  9 26  1  0
 12 27  1  0
 15 28  1  0
 16 29  1  0
 17 30  1  0
M  CHG  2   2   1   3  -1
M  END
$$$$
