
     RDKit          3D

 29 31  0  0  0  0  0  0  0  0999 V2000
    5.1126    0.7241    0.9378 O   0  0  0  0  0  0  0  0  0  0  0  0
    3.8844    0.5114    1.0119 N   0  0  0  0  0  0  0  0  0  0  0  0
    3.2840    0.5221    2.2503 O   0  0  0  0  0  0  0  0  0  0  0  0
    3.1091    0.2636   -0.1755 C   0  0  0  0  0  0  0  0  0  0  0  0
    3.7196    0.2614   -1.4427 C   0  0  0  0  0  0  0  0  0  0  0  0
    2.9655    0.0085   -2.5904 C   0  0  0  0  0  0  0  0  0  0  0  0
    1.5951   -0.2372   -2.4906 C   0  0  0  0  0  0  0  0  0  0  0  0
    0.9608   -0.2208   -1.2408 C   0  0  0  0  0  0  0  0  0  0  0  0
   -0.4493   -0.4955   -1.1609 N   0  0  0  0  0  0  0  0  0  0  0  0
   -1.2944   -0.0462   -0.0888 C   0  0  0  0  0  0  0  0  0  0  0  0
   -1.1789    1.2918    0.3822 C   0  0  0  0  0  0  0  0  0  0  0  0
   -2.0473    1.7891    1.3694 C   0  0  0  0  0  0  0  0  0  0  0  0
   -3.0253    0.9305    1.8495 C   0  0  0  0  0  0  0  0  0  0  0  0
   -3.9569    1.1588    2.7852 N   0  0  0  0  0  0  0  0  0  0  0  0
   -4.6099    0.0268    2.8750 O   0  0  0  0  0  0  0  0  0  0  0  0
   -4.1730   -0.9126    2.0729 N   0  0  0  0  0  0  0  0  0  0  0  0
   -3.1578   -0.3427    1.4055 C   0  0  0  0  0  0  0  0  0  0  0  0
   -2.3129   -0.8949    0.4340 C   0  0  0  0  0  0  0  0  0  0  0  0
   -2.4540   -2.2663    0.0203 N   0  0  0  0  0  0  0  0  0  0  0  0
   -3.5533   -2.8484    0.1261 O   0  0  0  0  0  0  0  0  0  0  0  0
   -1.3574   -2.9918   -0.3845 O   0  0  0  0  0  0  0  0  0  0  0  0
    1.7276    0.0142   -0.0840 C   0  0  0  0  0  0  0  0  0  0  0  0
    4.7806    0.4494   -1.5456 H   0  0  0  0  0  0  0  0  0  0  0  0
    3.4452    0.0021   -3.5608 H   0  0  0  0  0  0  0  0  0  0  0  0
    1.0239   -0.4324   -3.3895 H   0  0  0  0  0  0  0  0  0  0  0  0
   -0.8995   -1.0091   -1.9523 H   0  0  0  0  0  0  0  0  0  0  0  0
   -0.4285    1.9519   -0.0337 H   0  0  0  0  0  0  0  0  0  0  0  0
   -1.9618    2.8049    1.7330 H   0  0  0  0  0  0  0  0  0  0  0  0
    1.2517   -0.0128    0.8871 H   0  0  0  0  0  0  0  0  0  0  0  0
  1  2  2  0
  2  3  1  0
  2  4  1  0
  4  5  2  0
  5  6  1  0
  6  7  2  0
  7  8  1  0
  8  9  1  0
  9 10  1  0
 10 11  1  0
 11 12  2  0
 12 13  1  0
 13 14  2  0
 14 15  1  0
 15 16  1  0
 16 17  2  0
 17 18  1  0
 18 19  1  0
 19 20  2  0
 19 21  1  0
  8 22  2  0
 22  4  1  0
 18 10  2  0
 17 13  1  0
  5 23  1  0
  6 24  1  0
  7 25  1  0
  9 26  1  0
 11 27  1  0
 12 28  1  0
 22 29  1  0
M  CHG  4   2   1   3  -1  19   1  21  -1
M  END
$$$$
