
     RDKit          3D

 27 29  0  0  0  0  0  0  0  0999 V2000
   -0.5523   -2.7055    1.2227 O   0  0  0  0  0  0  0  0  0  0  0  0
   -1.7017   -2.2486    1.0548 N   0  0  0  0  0  0  0  0  0  0  0  0
   -2.7795   -3.0089    1.4463 O   0  0  0  0  0  0  0  0  0  0  0  0
   -1.8953   -0.9052    0.5754 C   0  0  0  0  0  0  0  0  0  0  0  0
   -0.9472   -0.2495   -0.2647 C   0  0  0  0  0  0  0  0  0  0  0  0
    0.1905   -0.9621   -0.7783 N   0  0  0  0  0  0  0  0  0  0  0  0
    1.5117   -0.4013   -0.8756 C   0  0  0  0  0  0  0  0  0  0  0  0
    2.4242   -0.9394   -1.7969 C   0  0  0  0  0  0  0  0  0  0  0  0
    3.7199   -0.4228   -1.8942 C   0  0  0  0  0  0  0  0  0  0  0  0
    4.1196    0.6277   -1.0637 C   0  0  0  0  0  0  0  0  0  0  0  0
    5.3768    1.1263   -1.1581 F   0  0  0  0  0  0  0  0  0  0  0  0
    3.2252    1.1584   -0.1303 C   0  0  0  0  0  0  0  0  0  0  0  0
    1.9285    0.6446   -0.0302 C   0  0  0  0  0  0  0  0  0  0  0  0
   -1.1807    1.0911   -0.6809 C   0  0  0  0  0  0  0  0  0  0  0  0
   -2.3279    1.7887   -0.2651 C   0  0  0  0  0  0  0  0  0  0  0  0
   -3.2245    1.1131    0.5496 C   0  0  0  0  0  0  0  0  0  0  0  0
   -4.3730    1.5547    1.0803 N   0  0  0  0  0  0  0  0  0  0  0  0
   -4.8204    0.5384    1.7752 O   0  0  0  0  0  0  0  0  0  0  0  0
   -4.0517   -0.5219    1.7354 N   0  0  0  0  0  0  0  0  0  0  0  0
   -3.0253   -0.1668    0.9474 C   0  0  0  0  0  0  0  0  0  0  0  0
    0.0344   -1.9283   -1.1454 H   0  0  0  0  0  0  0  0  0  0  0  0
    2.1277   -1.7545   -2.4450 H   0  0  0  0  0  0  0  0  0  0  0  0
    4.4141   -0.8391   -2.6130 H   0  0  0  0  0  0  0  0  0  0  0  0
    3.5377    1.9643    0.5212 H   0  0  0  0  0  0  0  0  0  0  0  0
    1.2597    1.0534    0.7158 H   0  0  0  0  0  0  0  0  0  0  0  0
   -0.4817    1.5840   -1.3444 H   0  0  0  0  0  0  0  0  0  0  0  0
   -2.5087    2.8093   -0.5766 H   0  0  0  0  0  0  0  0  0  0  0  0
  1  2  2  0
  2  3  1  0
  2  4  1  0
  4  5  2  0
  5  6  1  0
  6  7  1  0
  7  8  2  0
  8  9  1  0
  9 10  2  0
 10 11  1  0
 10 12  1  0
 12 13  2  0
  5 14  1  0
 14 15  2  0
 15 16  1  0
 16 17  2  0
 17 18  1  0
 18 19  1  0
 19 20  2  0
 20  4  1  0
 13  7  1  0
 20 16  1  0
  6 21  1  0
  8 22  1  0
  9 23  1  0
 12 24  1  0
 13 25  1  0
 14 26  1  0
 15 27  1  0
M  CHG  2   2   1   3  -1
M  END
$$$$
