
     RDKit          3D

 30 32  0  0  0  0  0  0  0  0999 V2000
    1.3947    2.5844    1.5097 O   0  0  0  0  0  0  0  0  0  0  0  0
    2.4303    2.3026    0.8723 N   0  0  0  0  0  0  0  0  0  0  0  0
    3.4937    3.1742    0.9190 O   0  0  0  0  0  0  0  0  0  0  0  0
    2.5579    1.0350    0.2021 C   0  0  0  0  0  0  0  0  0  0  0  0
    1.4305    0.3164   -0.2947 C   0  0  0  0  0  0  0  0  0  0  0  0
    0.1178    0.9010   -0.2607 N   0  0  0  0  0  0  0  0  0  0  0  0
   -1.0774    0.1714    0.0706 C   0  0  0  0  0  0  0  0  0  0  0  0
   -1.0314   -0.9705    0.8854 C   0  0  0  0  0  0  0  0  0  0  0  0
   -2.2044   -1.6509    1.2109 C   0  0  0  0  0  0  0  0  0  0  0  0
   -3.4415   -1.1992    0.7406 C   0  0  0  0  0  0  0  0  0  0  0  0
   -4.8804   -2.1095    1.1926 Cl  0  0  0  0  0  0  0  0  0  0  0  0
   -3.5122   -0.0405   -0.0656 C   0  0  0  0  0  0  0  0  0  0  0  0
   -4.8449    0.4660   -0.5749 C   0  0  0  0  0  0  0  0  0  0  0  0
   -5.4455   -0.5081   -1.3518 F   0  0  0  0  0  0  0  0  0  0  0  0
   -5.6676    0.7654    0.4959 F   0  0  0  0  0  0  0  0  0  0  0  0
   -4.7026    1.6078   -1.3448 F   0  0  0  0  0  0  0  0  0  0  0  0
   -2.3188    0.6375   -0.3863 C   0  0  0  0  0  0  0  0  0  0  0  0
    1.6187   -0.9477   -0.9207 C   0  0  0  0  0  0  0  0  0  0  0  0
    2.9010   -1.5094   -1.0464 C   0  0  0  0  0  0  0  0  0  0  0  0
    3.9695   -0.7761   -0.5517 C   0  0  0  0  0  0  0  0  0  0  0  0
    5.2716   -1.0927   -0.5421 N   0  0  0  0  0  0  0  0  0  0  0  0
    5.8477   -0.0757    0.0493 O   0  0  0  0  0  0  0  0  0  0  0  0
    5.0210    0.8698    0.4224 N   0  0  0  0  0  0  0  0  0  0  0  0
    3.8117    0.4338    0.0377 C   0  0  0  0  0  0  0  0  0  0  0  0
    0.0246    1.9036   -0.5415 H   0  0  0  0  0  0  0  0  0  0  0  0
   -0.0911   -1.3291    1.2832 H   0  0  0  0  0  0  0  0  0  0  0  0
   -2.1511   -2.5320    1.8381 H   0  0  0  0  0  0  0  0  0  0  0  0
   -2.3424    1.5284   -1.0008 H   0  0  0  0  0  0  0  0  0  0  0  0
    0.7714   -1.4840   -1.3286 H   0  0  0  0  0  0  0  0  0  0  0  0
    3.0491   -2.4716   -1.5191 H   0  0  0  0  0  0  0  0  0  0  0  0
  1  2  2  0
  2  3  1  0
  2  4  1  0
  4  5  2  0
  5  6  1  0
  6  7  1  0
  7  8  2  0
  8  9  1  0
  9 10  2  0
 10 11  1  0
 10 12  1  0
 12 13  1  0
 13 14  1  0
 13 15  1  0
 13 16  1  0
 12 17  2  0
  5 18  1  0
 18 19  2  0
 19 20  1  0
 20 21  2  0
 21 22  1  0
 22 23  1  0
 23 24  2  0
 24  4  1  0
 17  7  1  0
 24 20  1  0
  6 25  1  0
  8 26  1  0
  9 27  1  0
 17 28  1  0
 18 29  1  0
 19 30  1  0
M  CHG  2   2   1   3  -1
M  END
$$$$
