
     RDKit          3D

 36 39  0  0  0  0  0  0  0  0999 V2000
   -5.4468   -2.1852   -2.4961 Br  0  0  0  0  0  0  0  0  0  0  0  0
   -4.3513   -1.6180   -1.0381 C   0  0  0  0  0  0  0  0  0  0  0  0
   -4.5608   -2.1454    0.2397 C   0  0  0  0  0  0  0  0  0  0  0  0
   -3.7546   -1.7377    1.3051 C   0  0  0  0  0  0  0  0  0  0  0  0
   -2.7399   -0.7992    1.0977 C   0  0  0  0  0  0  0  0  0  0  0  0
   -2.5286   -0.2514   -0.1812 C   0  0  0  0  0  0  0  0  0  0  0  0
   -1.4124    0.7412   -0.4205 C   0  0  2  0  0  0  0  0  0  0  0  0
   -0.0413    0.0125   -0.4429 C   0  0  0  0  0  0  0  0  0  0  0  0
    1.1386    1.0099   -0.5619 C   0  0  2  0  0  0  0  0  0  0  0  0
    2.4577    0.2928   -0.3303 C   0  0  0  0  0  0  0  0  0  0  0  0
    2.8702    0.0086    0.9878 C   0  0  0  0  0  0  0  0  0  0  0  0
    4.0625   -0.6758    1.2308 C   0  0  0  0  0  0  0  0  0  0  0  0
    4.8519   -1.1042    0.1648 C   0  0  0  0  0  0  0  0  0  0  0  0
    4.4451   -0.8599   -1.1473 C   0  0  0  0  0  0  0  0  0  0  0  0
    3.2509   -0.1751   -1.4069 C   0  0  0  0  0  0  0  0  0  0  0  0
    2.7168    0.0707   -3.4484 I   0  0  0  0  0  0  0  0  0  0  0  0
    0.9506    2.1029    0.3932 N   0  0  0  0  0  0  0  0  0  0  0  0
    1.8205    3.0312    0.7459 N   0  0  0  0  0  0  0  0  0  0  0  0
    1.1850    3.9357    1.4835 N   0  0  0  0  0  0  0  0  0  0  0  0
   -0.1046    3.6260    1.5899 N   0  0  0  0  0  0  0  0  0  0  0  0
   -0.2220    2.4839    0.8937 C   0  0  0  0  0  0  0  0  0  0  0  0
   -1.4366    1.7990    0.6005 N   0  0  0  0  0  0  0  0  0  0  0  0
   -3.3365   -0.6779   -1.2499 C   0  0  0  0  0  0  0  0  0  0  0  0
   -5.3442   -2.8735    0.4065 H   0  0  0  0  0  0  0  0  0  0  0  0
   -3.9140   -2.1518    2.2924 H   0  0  0  0  0  0  0  0  0  0  0  0
   -2.1179   -0.5004    1.9324 H   0  0  0  0  0  0  0  0  0  0  0  0
   -1.5549    1.2290   -1.4106 H   0  0  0  0  0  0  0  0  0  0  0  0
   -0.0116   -0.6973   -1.2987 H   0  0  0  0  0  0  0  0  0  0  0  0
    0.0710   -0.5766    0.4946 H   0  0  0  0  0  0  0  0  0  0  0  0
    1.1111    1.4618   -1.5737 H   0  0  0  0  0  0  0  0  0  0  0  0
    2.2654    0.3159    1.8320 H   0  0  0  0  0  0  0  0  0  0  0  0
    4.3716   -0.8791    2.2480 H   0  0  0  0  0  0  0  0  0  0  0  0
    5.7749   -1.6367    0.3550 H   0  0  0  0  0  0  0  0  0  0  0  0
    5.0574   -1.2133   -1.9670 H   0  0  0  0  0  0  0  0  0  0  0  0
   -2.3446    2.2012    0.9260 H   0  0  0  0  0  0  0  0  0  0  0  0
   -3.1784   -0.2833   -2.2459 H   0  0  0  0  0  0  0  0  0  0  0  0
  1  2  1  0
  2  3  2  0
  3  4  1  0
  4  5  2  0
  5  6  1  0
  6  7  1  0
  7  8  1  0
  8  9  1  0
  9 10  1  0
 10 11  2  0
 11 12  1  0
 12 13  2  0
 13 14  1  0
 14 15  2  0
 15 16  1  0
  9 17  1  0
 17 18  1  0
 18 19  2  0
 19 20  1  0
 20 21  2  0
 21 22  1  0
  6 23  2  0
 23  2  1  0
 22  7  1  0
 15 10  1  0
 21 17  1  0
  3 24  1  0
  4 25  1  0
  5 26  1  0
  7 27  1  6
  8 28  1  0
  8 29  1  0
  9 30  1  6
 11 31  1  0
 12 32  1  0
 13 33  1  0
 14 34  1  0
 22 35  1  0
 23 36  1  0
M  END
$$$$
