
     RDKit          3D

 36 39  0  0  0  0  0  0  0  0999 V2000
    2.8666   -2.4490    0.4731 Cl  0  0  0  0  0  0  0  0  0  0  0  0
    3.2424   -0.7273    0.4743 C   0  0  0  0  0  0  0  0  0  0  0  0
    4.5551   -0.3571    0.7922 C   0  0  0  0  0  0  0  0  0  0  0  0
    4.9243    0.9877    0.8275 C   0  0  0  0  0  0  0  0  0  0  0  0
    3.9823    1.9780    0.5490 C   0  0  0  0  0  0  0  0  0  0  0  0
    4.4873    3.8191    0.6095 Br  0  0  0  0  0  0  0  0  0  0  0  0
    2.6690    1.6237    0.2293 C   0  0  0  0  0  0  0  0  0  0  0  0
    2.2792    0.2714    0.1745 C   0  0  0  0  0  0  0  0  0  0  0  0
    0.8303   -0.0495   -0.1579 C   0  0  2  0  0  0  0  0  0  0  0  0
    0.0468   -0.4911    1.1115 C   0  0  0  0  0  0  0  0  0  0  0  0
   -1.3511   -1.0966    0.7742 C   0  0  1  0  0  0  0  0  0  0  0  0
   -2.4105   -0.0984    0.3037 C   0  0  0  0  0  0  0  0  0  0  0  0
   -2.2524    1.3034    0.3998 C   0  0  0  0  0  0  0  0  0  0  0  0
   -3.2710    2.1660   -0.0160 C   0  0  0  0  0  0  0  0  0  0  0  0
   -4.4693    1.6529   -0.5111 C   0  0  0  0  0  0  0  0  0  0  0  0
   -4.6587    0.2724   -0.5818 C   0  0  0  0  0  0  0  0  0  0  0  0
   -6.3103   -0.4314   -1.2340 Br  0  0  0  0  0  0  0  0  0  0  0  0
   -3.6433   -0.5957   -0.1681 C   0  0  0  0  0  0  0  0  0  0  0  0
   -1.1966   -2.1681   -0.2226 N   0  0  0  0  0  0  0  0  0  0  0  0
   -0.2075   -2.0222   -1.2378 C   0  0  0  0  0  0  0  0  0  0  0  0
   -0.1125   -2.7442   -2.3657 N   0  0  0  0  0  0  0  0  0  0  0  0
    0.9073   -2.1890   -3.0162 N   0  0  0  0  0  0  0  0  0  0  0  0
    1.4074   -1.1743   -2.3182 N   0  0  0  0  0  0  0  0  0  0  0  0
    0.7284   -1.0791   -1.1903 N   0  0  0  0  0  0  0  0  0  0  0  0
    5.2941   -1.1157    1.0174 H   0  0  0  0  0  0  0  0  0  0  0  0
    5.9422    1.2591    1.0761 H   0  0  0  0  0  0  0  0  0  0  0  0
    1.9513    2.4086    0.0242 H   0  0  0  0  0  0  0  0  0  0  0  0
    0.3389    0.8588   -0.5663 H   0  0  0  0  0  0  0  0  0  0  0  0
    0.6233   -1.2802    1.6388 H   0  0  0  0  0  0  0  0  0  0  0  0
   -0.0367    0.3439    1.8377 H   0  0  0  0  0  0  0  0  0  0  0  0
   -1.7397   -1.5526    1.7111 H   0  0  0  0  0  0  0  0  0  0  0  0
   -1.3550    1.7538    0.7930 H   0  0  0  0  0  0  0  0  0  0  0  0
   -3.1321    3.2374    0.0527 H   0  0  0  0  0  0  0  0  0  0  0  0
   -5.2535    2.3281   -0.8288 H   0  0  0  0  0  0  0  0  0  0  0  0
   -3.8234   -1.6619   -0.2117 H   0  0  0  0  0  0  0  0  0  0  0  0
   -1.8524   -2.9807   -0.2433 H   0  0  0  0  0  0  0  0  0  0  0  0
  1  2  1  0
  2  3  2  0
  3  4  1  0
  4  5  2  0
  5  6  1  0
  5  7  1  0
  7  8  2  0
  8  9  1  0
  9 10  1  0
 10 11  1  0
 11 12  1  0
 12 13  2  0
 13 14  1  0
 14 15  2  0
 15 16  1  0
 16 17  1  0
 16 18  2  0
 11 19  1  0
 19 20  1  0
 20 21  2  0
 21 22  1  0
 22 23  2  0
 23 24  1  0
  8  2  1  0
 24  9  1  0
 18 12  1  0
 24 20  1  0
  3 25  1  0
  4 26  1  0
  7 27  1  0
  9 28  1  6
 10 29  1  0
 10 30  1  0
 11 31  1  1
 13 32  1  0
 14 33  1  0
 15 34  1  0
 18 35  1  0
 19 36  1  0
M  END
$$$$
