
     RDKit          3D

 27 29  0  0  0  0  0  0  0  0999 V2000
   -1.3359   -2.7410    0.5831 O   0  0  0  0  0  0  0  0  0  0  0  0
   -2.2833   -1.9434    0.7385 N   0  0  0  0  0  0  0  0  0  0  0  0
   -3.5317   -2.4464    1.0240 O   0  0  0  0  0  0  0  0  0  0  0  0
   -2.0540   -0.5222    0.7413 C   0  0  0  0  0  0  0  0  0  0  0  0
   -0.9800    0.0799    0.0212 C   0  0  0  0  0  0  0  0  0  0  0  0
   -0.1533   -0.7072   -0.8521 N   0  0  0  0  0  0  0  0  0  0  0  0
    1.2730   -0.5534   -0.9611 C   0  0  0  0  0  0  0  0  0  0  0  0
    2.0372   -0.0332    0.1004 C   0  0  0  0  0  0  0  0  0  0  0  0
    3.4246    0.0868   -0.0222 C   0  0  0  0  0  0  0  0  0  0  0  0
    4.0629   -0.3204   -1.1962 C   0  0  0  0  0  0  0  0  0  0  0  0
    3.3149   -0.8555   -2.2494 C   0  0  0  0  0  0  0  0  0  0  0  0
    4.1179   -1.3766   -3.7193 Cl  0  0  0  0  0  0  0  0  0  0  0  0
    1.9258   -0.9771   -2.1296 C   0  0  0  0  0  0  0  0  0  0  0  0
   -0.7868    1.4882    0.0883 C   0  0  0  0  0  0  0  0  0  0  0  0
   -1.6313    2.2985    0.8667 C   0  0  0  0  0  0  0  0  0  0  0  0
   -2.6640    1.6724    1.5491 C   0  0  0  0  0  0  0  0  0  0  0  0
   -3.5874    2.2147    2.3546 N   0  0  0  0  0  0  0  0  0  0  0  0
   -4.3095    1.1962    2.7512 O   0  0  0  0  0  0  0  0  0  0  0  0
   -3.9245    0.0415    2.2665 N   0  0  0  0  0  0  0  0  0  0  0  0
   -2.8709    0.3346    1.4890 C   0  0  0  0  0  0  0  0  0  0  0  0
   -0.6261   -1.3982   -1.4779 H   0  0  0  0  0  0  0  0  0  0  0  0
    1.5659    0.2657    1.0275 H   0  0  0  0  0  0  0  0  0  0  0  0
    4.0064    0.4901    0.7967 H   0  0  0  0  0  0  0  0  0  0  0  0
    5.1378   -0.2257   -1.2838 H   0  0  0  0  0  0  0  0  0  0  0  0
    1.3527   -1.3939   -2.9486 H   0  0  0  0  0  0  0  0  0  0  0  0
    0.0064    1.9559   -0.4810 H   0  0  0  0  0  0  0  0  0  0  0  0
   -1.4868    3.3696    0.9232 H   0  0  0  0  0  0  0  0  0  0  0  0
  1  2  2  0
  2  3  1  0
  2  4  1  0
  4  5  2  0
  5  6  1  0
  6  7  1  0
  7  8  2  0
  8  9  1  0
  9 10  2  0
 10 11  1  0
 11 12  1  0
 11 13  2  0
  5 14  1  0
 14 15  2  0
 15 16  1  0
 16 17  2  0
 17 18  1  0
 18 19  1  0
 19 20  2  0
 20  4  1  0
 13  7  1  0
 20 16  1  0
  6 21  1  0
  8 22  1  0
  9 23  1  0
 10 24  1  0
 13 25  1  0
 14 26  1  0
 15 27  1  0
M  CHG  2   2   1   3  -1
M  END
$$$$
