
     RDKit          3D

 36 39  0  0  0  0  0  0  0  0999 V2000
    1.4005    1.7739   -2.0200 F   0  0  0  0  0  0  0  0  0  0  0  0
    2.4037    1.2856   -1.2469 C   0  0  0  0  0  0  0  0  0  0  0  0
    3.6928    1.7992   -1.4135 C   0  0  0  0  0  0  0  0  0  0  0  0
    4.7443    1.3311   -0.6250 C   0  0  0  0  0  0  0  0  0  0  0  0
    4.5122    0.3493    0.3410 C   0  0  0  0  0  0  0  0  0  0  0  0
    5.9627   -0.2700    1.4220 Br  0  0  0  0  0  0  0  0  0  0  0  0
    3.2238   -0.1722    0.5166 C   0  0  0  0  0  0  0  0  0  0  0  0
    3.0156   -1.1153    1.4714 F   0  0  0  0  0  0  0  0  0  0  0  0
    2.1553    0.2819   -0.2881 C   0  0  0  0  0  0  0  0  0  0  0  0
    0.7482   -0.2558   -0.0942 C   0  0  2  0  0  0  0  0  0  0  0  0
    0.1118    0.3260    1.1948 C   0  0  0  0  0  0  0  0  0  0  0  0
   -1.2105   -0.3876    1.5974 C   0  0  1  0  0  0  0  0  0  0  0  0
   -2.3702    0.0784    0.7367 C   0  0  0  0  0  0  0  0  0  0  0  0
   -2.6751   -0.5378   -0.4933 C   0  0  0  0  0  0  0  0  0  0  0  0
   -3.7241   -0.0597   -1.2836 C   0  0  0  0  0  0  0  0  0  0  0  0
   -4.4730    1.0418   -0.8645 C   0  0  0  0  0  0  0  0  0  0  0  0
   -4.1712    1.6722    0.3455 C   0  0  0  0  0  0  0  0  0  0  0  0
   -5.1863    3.1880    0.9110 Br  0  0  0  0  0  0  0  0  0  0  0  0
   -3.1221    1.1970    1.1397 C   0  0  0  0  0  0  0  0  0  0  0  0
   -1.0727   -1.8517    1.5605 N   0  0  0  0  0  0  0  0  0  0  0  0
   -0.0996   -2.4421    0.7017 C   0  0  0  0  0  0  0  0  0  0  0  0
    0.0100   -3.7486    0.4116 N   0  0  0  0  0  0  0  0  0  0  0  0
    0.9485   -3.7912   -0.5305 N   0  0  0  0  0  0  0  0  0  0  0  0
    1.3792   -2.5661   -0.8122 N   0  0  0  0  0  0  0  0  0  0  0  0
    0.7439   -1.7161   -0.0268 N   0  0  0  0  0  0  0  0  0  0  0  0
    3.8774    2.5663   -2.1546 H   0  0  0  0  0  0  0  0  0  0  0  0
    5.7388    1.7362   -0.7613 H   0  0  0  0  0  0  0  0  0  0  0  0
    0.1082    0.0369   -0.9538 H   0  0  0  0  0  0  0  0  0  0  0  0
   -0.0663    1.4164    1.0650 H   0  0  0  0  0  0  0  0  0  0  0  0
    0.8253    0.2117    2.0400 H   0  0  0  0  0  0  0  0  0  0  0  0
   -1.4252   -0.1060    2.6524 H   0  0  0  0  0  0  0  0  0  0  0  0
   -2.1047   -1.3847   -0.8485 H   0  0  0  0  0  0  0  0  0  0  0  0
   -3.9539   -0.5417   -2.2250 H   0  0  0  0  0  0  0  0  0  0  0  0
   -5.2829    1.4077   -1.4824 H   0  0  0  0  0  0  0  0  0  0  0  0
   -2.8911    1.7024    2.0694 H   0  0  0  0  0  0  0  0  0  0  0  0
   -1.7734   -2.4556    2.0457 H   0  0  0  0  0  0  0  0  0  0  0  0
  1  2  1  0
  2  3  2  0
  3  4  1  0
  4  5  2  0
  5  6  1  0
  5  7  1  0
  7  8  1  0
  7  9  2  0
  9 10  1  0
 10 11  1  0
 11 12  1  0
 12 13  1  0
 13 14  2  0
 14 15  1  0
 15 16  2  0
 16 17  1  0
 17 18  1  0
 17 19  2  0
 12 20  1  0
 20 21  1  0
 21 22  2  0
 22 23  1  0
 23 24  2  0
 24 25  1  0
  9  2  1  0
 25 10  1  0
 19 13  1  0
 25 21  1  0
  3 26  1  0
  4 27  1  0
 10 28  1  6
 11 29  1  0
 11 30  1  0
 12 31  1  1
 14 32  1  0
 15 33  1  0
 16 34  1  0
 19 35  1  0
 20 36  1  0
M  END
$$$$
