
     RDKit          3D

 36 39  0  0  0  0  0  0  0  0999 V2000
    4.2728   -1.8959    2.1226 F   0  0  0  0  0  0  0  0  0  0  0  0
    3.8266   -0.6695    1.7537 C   0  0  0  0  0  0  0  0  0  0  0  0
    4.3863    0.4734    2.3274 C   0  0  0  0  0  0  0  0  0  0  0  0
    3.9244    1.7377    1.9591 C   0  0  0  0  0  0  0  0  0  0  0  0
    2.9044    1.8672    1.0115 C   0  0  0  0  0  0  0  0  0  0  0  0
    2.4679    3.1106    0.6863 F   0  0  0  0  0  0  0  0  0  0  0  0
    2.3403    0.7223    0.4115 C   0  0  0  0  0  0  0  0  0  0  0  0
    1.2159    0.8651   -0.5991 C   0  0  2  0  0  0  0  0  0  0  0  0
   -0.1454    0.4830    0.0368 C   0  0  0  0  0  0  0  0  0  0  0  0
   -1.2693    0.3726   -1.0299 C   0  0  2  0  0  0  0  0  0  0  0  0
   -2.5480   -0.1260   -0.3935 C   0  0  0  0  0  0  0  0  0  0  0  0
   -3.5975    0.7684   -0.1198 C   0  0  0  0  0  0  0  0  0  0  0  0
   -4.7695    0.3155    0.4933 C   0  0  0  0  0  0  0  0  0  0  0  0
   -4.9017   -1.0296    0.8467 C   0  0  0  0  0  0  0  0  0  0  0  0
   -3.8597   -1.9258    0.5910 C   0  0  0  0  0  0  0  0  0  0  0  0
   -4.0367   -3.7623    1.0844 Br  0  0  0  0  0  0  0  0  0  0  0  0
   -2.6854   -1.4766   -0.0225 C   0  0  0  0  0  0  0  0  0  0  0  0
   -0.8694   -0.5084   -2.1373 N   0  0  0  0  0  0  0  0  0  0  0  0
    0.5081   -0.5597   -2.4979 C   0  0  0  0  0  0  0  0  0  0  0  0
    1.0154   -1.1014   -3.6170 N   0  0  0  0  0  0  0  0  0  0  0  0
    2.3105   -0.8015   -3.5602 N   0  0  0  0  0  0  0  0  0  0  0  0
    2.5773   -0.0997   -2.4635 N   0  0  0  0  0  0  0  0  0  0  0  0
    1.4563    0.0354   -1.7793 N   0  0  0  0  0  0  0  0  0  0  0  0
    2.8054   -0.5522    0.8046 C   0  0  0  0  0  0  0  0  0  0  0  0
    2.2699   -1.6811    0.2735 F   0  0  0  0  0  0  0  0  0  0  0  0
    5.1754    0.3801    3.0624 H   0  0  0  0  0  0  0  0  0  0  0  0
    4.3561    2.6206    2.4128 H   0  0  0  0  0  0  0  0  0  0  0  0
    1.1429    1.9184   -0.9474 H   0  0  0  0  0  0  0  0  0  0  0  0
   -0.0489   -0.4928    0.5616 H   0  0  0  0  0  0  0  0  0  0  0  0
   -0.4252    1.2490    0.7931 H   0  0  0  0  0  0  0  0  0  0  0  0
   -1.4366    1.3877   -1.4541 H   0  0  0  0  0  0  0  0  0  0  0  0
   -3.5094    1.8161   -0.3792 H   0  0  0  0  0  0  0  0  0  0  0  0
   -5.5750    1.0091    0.6975 H   0  0  0  0  0  0  0  0  0  0  0  0
   -5.8113   -1.3734    1.3222 H   0  0  0  0  0  0  0  0  0  0  0  0
   -1.8809   -2.1775   -0.2086 H   0  0  0  0  0  0  0  0  0  0  0  0
   -1.5861   -0.8989   -2.7899 H   0  0  0  0  0  0  0  0  0  0  0  0
  1  2  1  0
  2  3  2  0
  3  4  1  0
  4  5  2  0
  5  6  1  0
  5  7  1  0
  7  8  1  0
  8  9  1  0
  9 10  1  0
 10 11  1  0
 11 12  2  0
 12 13  1  0
 13 14  2  0
 14 15  1  0
 15 16  1  0
 15 17  2  0
 10 18  1  0
 18 19  1  0
 19 20  2  0
 20 21  1  0
 21 22  2  0
 22 23  1  0
  7 24  2  0
 24 25  1  0
 24  2  1  0
 23  8  1  0
 17 11  1  0
 23 19  1  0
  3 26  1  0
  4 27  1  0
  8 28  1  6
  9 29  1  0
  9 30  1  0
 10 31  1  6
 12 32  1  0
 13 33  1  0
 14 34  1  0
 17 35  1  0
 18 36  1  0
M  END
$$$$
