
     RDKit          3D

 27 29  0  0  0  0  0  0  0  0999 V2000
   -0.8619    2.7936   -1.0498 O   0  0  0  0  0  0  0  0  0  0  0  0
   -1.9354    2.3177   -0.6267 N   0  0  0  0  0  0  0  0  0  0  0  0
   -3.0891    3.0523   -0.7758 O   0  0  0  0  0  0  0  0  0  0  0  0
   -1.9506    1.0819    0.1114 C   0  0  0  0  0  0  0  0  0  0  0  0
   -0.9711    0.0635   -0.0832 C   0  0  0  0  0  0  0  0  0  0  0  0
    0.0055    0.1791   -1.1315 N   0  0  0  0  0  0  0  0  0  0  0  0
    1.3879   -0.1912   -0.9847 C   0  0  0  0  0  0  0  0  0  0  0  0
    2.1416   -0.5117   -2.1249 C   0  0  0  0  0  0  0  0  0  0  0  0
    3.4919   -0.8550   -2.0073 C   0  0  0  0  0  0  0  0  0  0  0  0
    4.1043   -0.8692   -0.7516 C   0  0  0  0  0  0  0  0  0  0  0  0
    3.3687   -0.5338    0.3883 C   0  0  0  0  0  0  0  0  0  0  0  0
    3.9675   -0.5340    1.6047 F   0  0  0  0  0  0  0  0  0  0  0  0
    2.0176   -0.1900    0.2746 C   0  0  0  0  0  0  0  0  0  0  0  0
   -1.0217   -1.1239    0.6996 C   0  0  0  0  0  0  0  0  0  0  0  0
   -2.0166   -1.3054    1.6758 C   0  0  0  0  0  0  0  0  0  0  0  0
   -2.9501   -0.2912    1.8309 C   0  0  0  0  0  0  0  0  0  0  0  0
   -3.9781   -0.2210    2.6876 N   0  0  0  0  0  0  0  0  0  0  0  0
   -4.5297    0.9404    2.4369 O   0  0  0  0  0  0  0  0  0  0  0  0
   -3.9388    1.6242    1.4883 N   0  0  0  0  0  0  0  0  0  0  0  0
   -2.9251    0.8415    1.0876 C   0  0  0  0  0  0  0  0  0  0  0  0
   -0.3225    0.5072   -2.0682 H   0  0  0  0  0  0  0  0  0  0  0  0
    1.6795   -0.5030   -3.1041 H   0  0  0  0  0  0  0  0  0  0  0  0
    4.0642   -1.1084   -2.8904 H   0  0  0  0  0  0  0  0  0  0  0  0
    5.1501   -1.1340   -0.6638 H   0  0  0  0  0  0  0  0  0  0  0  0
    1.4709    0.0904    1.1654 H   0  0  0  0  0  0  0  0  0  0  0  0
   -0.3010   -1.9147    0.5351 H   0  0  0  0  0  0  0  0  0  0  0  0
   -2.0577   -2.2053    2.2757 H   0  0  0  0  0  0  0  0  0  0  0  0
  1  2  2  0
  2  3  1  0
  2  4  1  0
  4  5  2  0
  5  6  1  0
  6  7  1  0
  7  8  2  0
  8  9  1  0
  9 10  2  0
 10 11  1  0
 11 12  1  0
 11 13  2  0
  5 14  1  0
 14 15  2  0
 15 16  1  0
 16 17  2  0
 17 18  1  0
 18 19  1  0
 19 20  2  0
 20  4  1  0
 13  7  1  0
 20 16  1  0
  6 21  1  0
  8 22  1  0
  9 23  1  0
 10 24  1  0
 13 25  1  0
 14 26  1  0
 15 27  1  0
M  CHG  2   2   1   3  -1
M  END
$$$$
