
     RDKit          3D

 38 40  0  0  0  0  0  0  0  0999 V2000
   -0.8328   -2.5381   -0.6012 C   0  0  0  0  0  0  0  0  0  0  0  0
   -0.7761   -1.1129   -0.1902 C   0  0  0  0  0  0  0  0  0  0  0  0
    0.3813   -0.3786    0.0821 C   0  0  0  0  0  0  0  0  0  0  0  0
    0.2399    0.9634    0.4841 C   0  0  0  0  0  0  0  0  0  0  0  0
   -1.0332    1.5472    0.5788 C   0  0  0  0  0  0  0  0  0  0  0  0
   -2.1898    0.7974    0.2910 C   0  0  0  0  0  0  0  0  0  0  0  0
   -2.0277   -0.5477   -0.0899 C   0  0  0  0  0  0  0  0  0  0  0  0
   -3.0928   -1.5451   -0.4123 C   0  0  1  0  0  0  0  0  0  0  0  0
   -2.3095   -2.7561   -0.9763 C   0  0  0  0  0  0  0  0  0  0  0  0
   -2.7739   -3.9549   -0.4585 F   0  0  0  0  0  0  0  0  0  0  0  0
   -2.4355   -2.7870   -2.3561 F   0  0  0  0  0  0  0  0  0  0  0  0
   -3.8267   -1.8896    0.7377 O   0  0  0  0  0  0  0  0  0  0  0  0
   -3.7978    1.5299    0.3983 S   0  0  0  0  0  0  0  0  0  0  0  0
   -4.6103    0.7996    1.4300 O   0  0  0  0  0  0  0  0  0  0  0  0
   -4.4758    1.4242   -0.9386 O   0  0  0  0  0  0  0  0  0  0  0  0
   -3.7383    3.2535    0.8544 C   0  0  0  0  0  0  0  0  0  0  0  0
   -3.2417    3.3805    2.1381 F   0  0  0  0  0  0  0  0  0  0  0  0
   -5.0124    3.7864    0.8064 F   0  0  0  0  0  0  0  0  0  0  0  0
    1.6333   -1.0053   -0.0068 O   0  0  0  0  0  0  0  0  0  0  0  0
    2.8364   -0.3709   -0.3486 C   0  0  0  0  0  0  0  0  0  0  0  0
    2.8754    0.7239   -1.2316 C   0  0  0  0  0  0  0  0  0  0  0  0
    4.0969    1.3192   -1.5611 C   0  0  0  0  0  0  0  0  0  0  0  0
    5.2871    0.8208   -1.0236 C   0  0  0  0  0  0  0  0  0  0  0  0
    5.2585   -0.2810   -0.1599 C   0  0  0  0  0  0  0  0  0  0  0  0
    4.0344   -0.8777    0.1701 C   0  0  0  0  0  0  0  0  0  0  0  0
    6.4847   -0.8011    0.3863 C   0  0  0  0  0  0  0  0  0  0  0  0
    7.4704   -1.2192    0.8253 N   0  0  0  0  0  0  0  0  0  0  0  0
    4.1278    2.3757   -2.4102 F   0  0  0  0  0  0  0  0  0  0  0  0
   -0.5421   -3.1809    0.2577 H   0  0  0  0  0  0  0  0  0  0  0  0
   -0.1594   -2.7290   -1.4647 H   0  0  0  0  0  0  0  0  0  0  0  0
    1.1089    1.5541    0.7422 H   0  0  0  0  0  0  0  0  0  0  0  0
   -1.1031    2.5810    0.8840 H   0  0  0  0  0  0  0  0  0  0  0  0
   -3.7856   -1.1397   -1.1798 H   0  0  0  0  0  0  0  0  0  0  0  0
   -3.1852   -2.2078    1.4269 H   0  0  0  0  0  0  0  0  0  0  0  0
   -3.0880    3.8065    0.1457 H   0  0  0  0  0  0  0  0  0  0  0  0
    1.9663    1.1033   -1.6793 H   0  0  0  0  0  0  0  0  0  0  0  0
    6.2288    1.2882   -1.2858 H   0  0  0  0  0  0  0  0  0  0  0  0
    4.0073   -1.7322    0.8362 H   0  0  0  0  0  0  0  0  0  0  0  0
  1  2  1  0
  2  3  2  0
  3  4  1  0
  4  5  2  0
  5  6  1  0
  6  7  2  0
  7  8  1  0
  8  9  1  0
  9 10  1  0
  9 11  1  0
  8 12  1  0
  6 13  1  0
 13 14  2  0
 13 15  2  0
 13 16  1  0
 16 17  1  0
 16 18  1  0
  3 19  1  0
 19 20  1  0
 20 21  2  0
 21 22  1  0
 22 23  2  0
 23 24  1  0
 24 25  2  0
 24 26  1  0
 26 27  3  0
 22 28  1  0
  9  1  1  0
  7  2  1  0
 25 20  1  0
  1 29  1  0
  1 30  1  0
  4 31  1  0
  5 32  1  0
  8 33  1  6
 12 34  1  0
 16 35  1  0
 21 36  1  0
 23 37  1  0
 25 38  1  0
M  END
$$$$
