
     RDKit          3D

 38 40  0  0  0  0  0  0  0  0999 V2000
   -4.7067    1.9073   -0.6015 C   0  0  0  0  0  0  0  0  0  0  0  0
   -3.3894    2.4109    0.4826 S   0  0  0  0  0  0  0  0  0  0  0  0
   -3.2954    3.9111    0.4721 O   0  0  0  0  0  0  0  0  0  0  0  0
   -3.6880    1.9652    1.8857 O   0  0  0  0  0  0  0  0  0  0  0  0
   -1.8647    1.7159   -0.0787 C   0  0  0  0  0  0  0  0  0  0  0  0
   -1.0187    2.4792   -0.9031 C   0  0  0  0  0  0  0  0  0  0  0  0
    0.1713    1.9332   -1.4069 C   0  0  0  0  0  0  0  0  0  0  0  0
    0.5402    0.6195   -1.0902 C   0  0  0  0  0  0  0  0  0  0  0  0
    1.7241    0.0929   -1.6206 O   0  0  0  0  0  0  0  0  0  0  0  0
    2.7363   -0.5070   -0.8585 C   0  0  0  0  0  0  0  0  0  0  0  0
    3.6211   -1.3885   -1.4905 C   0  0  0  0  0  0  0  0  0  0  0  0
    4.6475   -2.0015   -0.7655 C   0  0  0  0  0  0  0  0  0  0  0  0
    5.4936   -2.8611   -1.3846 F   0  0  0  0  0  0  0  0  0  0  0  0
    4.8025   -1.7291    0.5968 C   0  0  0  0  0  0  0  0  0  0  0  0
    3.9336   -0.8363    1.2362 C   0  0  0  0  0  0  0  0  0  0  0  0
    4.0973   -0.5493    2.6372 C   0  0  0  0  0  0  0  0  0  0  0  0
    4.2286   -0.3186    3.7636 N   0  0  0  0  0  0  0  0  0  0  0  0
    2.9064   -0.2203    0.5094 C   0  0  0  0  0  0  0  0  0  0  0  0
   -0.3203   -0.1429   -0.2825 C   0  0  0  0  0  0  0  0  0  0  0  0
   -1.4907    0.3900    0.2142 C   0  0  0  0  0  0  0  0  0  0  0  0
   -2.2451   -0.6171    1.0107 C   0  0  2  0  0  0  0  0  0  0  0  0
   -2.1211   -0.3200    2.3759 O   0  0  0  0  0  0  0  0  0  0  0  0
   -1.5328   -1.9443    0.6860 C   0  0  0  0  0  0  0  0  0  0  0  0
   -0.1747   -1.5787    0.0717 C   0  0  0  0  0  0  0  0  0  0  0  0
   -5.6613    2.3575   -0.2597 H   0  0  0  0  0  0  0  0  0  0  0  0
   -4.4873    2.2497   -1.6339 H   0  0  0  0  0  0  0  0  0  0  0  0
   -4.7989    0.8024   -0.5943 H   0  0  0  0  0  0  0  0  0  0  0  0
   -1.2838    3.4941   -1.1698 H   0  0  0  0  0  0  0  0  0  0  0  0
    0.8086    2.5339   -2.0432 H   0  0  0  0  0  0  0  0  0  0  0  0
    3.5062   -1.6042   -2.5453 H   0  0  0  0  0  0  0  0  0  0  0  0
    5.6002   -2.2097    1.1505 H   0  0  0  0  0  0  0  0  0  0  0  0
    2.2461    0.4810    1.0049 H   0  0  0  0  0  0  0  0  0  0  0  0
   -3.3138   -0.6508    0.7002 H   0  0  0  0  0  0  0  0  0  0  0  0
   -2.7983   -0.8729    2.8461 H   0  0  0  0  0  0  0  0  0  0  0  0
   -2.1335   -2.5093   -0.0607 H   0  0  0  0  0  0  0  0  0  0  0  0
   -1.4049   -2.5806    1.5890 H   0  0  0  0  0  0  0  0  0  0  0  0
    0.0376   -2.1934   -0.8295 H   0  0  0  0  0  0  0  0  0  0  0  0
    0.6282   -1.7078    0.8270 H   0  0  0  0  0  0  0  0  0  0  0  0
  1  2  1  0
  2  3  2  0
  2  4  2  0
  2  5  1  0
  5  6  2  0
  6  7  1  0
  7  8  2  0
  8  9  1  0
  9 10  1  0
 10 11  2  0
 11 12  1  0
 12 13  1  0
 12 14  2  0
 14 15  1  0
 15 16  1  0
 16 17  3  0
 15 18  2  0
  8 19  1  0
 19 20  2  0
 20 21  1  0
 21 22  1  0
 21 23  1  0
 23 24  1  0
 20  5  1  0
 18 10  1  0
 24 19  1  0
  1 25  1  0
  1 26  1  0
  1 27  1  0
  6 28  1  0
  7 29  1  0
 11 30  1  0
 14 31  1  0
 18 32  1  0
 21 33  1  6
 22 34  1  0
 23 35  1  0
 23 36  1  0
 24 37  1  0
 24 38  1  0
M  END
$$$$
