
     RDKit          3D

 31 33  0  0  0  0  0  0  0  0999 V2000
   -4.7867   -1.2076   -0.1127 C   0  0  0  0  0  0  0  0  0  0  0  0
   -3.3916   -1.0048   -0.3124 O   0  0  0  0  0  0  0  0  0  0  0  0
   -2.6577    0.0544    0.2421 C   0  0  0  0  0  0  0  0  0  0  0  0
   -3.2493    1.0347    1.0611 C   0  0  0  0  0  0  0  0  0  0  0  0
   -2.4766    2.0766    1.5790 C   0  0  0  0  0  0  0  0  0  0  0  0
   -1.1113    2.1480    1.2940 C   0  0  0  0  0  0  0  0  0  0  0  0
   -0.5010    1.1693    0.4969 C   0  0  0  0  0  0  0  0  0  0  0  0
    0.9030    1.2733    0.2005 N   0  0  0  0  0  0  0  0  0  0  0  0
    1.7309    0.1560   -0.1623 C   0  0  0  0  0  0  0  0  0  0  0  0
    1.6275   -1.0605    0.5690 C   0  0  0  0  0  0  0  0  0  0  0  0
    2.4819   -2.1433    0.2973 C   0  0  0  0  0  0  0  0  0  0  0  0
    3.4343   -1.9701   -0.6962 C   0  0  0  0  0  0  0  0  0  0  0  0
    4.3486   -2.8416   -1.1435 N   0  0  0  0  0  0  0  0  0  0  0  0
    4.9804   -2.1914   -2.0891 O   0  0  0  0  0  0  0  0  0  0  0  0
    4.5457   -0.9714   -2.2873 N   0  0  0  0  0  0  0  0  0  0  0  0
    3.5553   -0.8158   -1.3954 C   0  0  0  0  0  0  0  0  0  0  0  0
    2.7231    0.2897   -1.1765 C   0  0  0  0  0  0  0  0  0  0  0  0
    2.8506    1.4836   -1.9704 N   0  0  0  0  0  0  0  0  0  0  0  0
    3.9371    1.7667   -2.5159 O   0  0  0  0  0  0  0  0  0  0  0  0
    1.7515    2.2663   -2.2391 O   0  0  0  0  0  0  0  0  0  0  0  0
   -1.2878    0.1325   -0.0385 C   0  0  0  0  0  0  0  0  0  0  0  0
   -5.1035   -2.1165   -0.6640 H   0  0  0  0  0  0  0  0  0  0  0  0
   -5.3583   -0.3385   -0.5015 H   0  0  0  0  0  0  0  0  0  0  0  0
   -5.0005   -1.3540    0.9672 H   0  0  0  0  0  0  0  0  0  0  0  0
   -4.3041    1.0038    1.2976 H   0  0  0  0  0  0  0  0  0  0  0  0
   -2.9375    2.8319    2.2025 H   0  0  0  0  0  0  0  0  0  0  0  0
   -0.5256    2.9623    1.7019 H   0  0  0  0  0  0  0  0  0  0  0  0
    1.3625    2.2069    0.3001 H   0  0  0  0  0  0  0  0  0  0  0  0
    0.8979   -1.1575    1.3628 H   0  0  0  0  0  0  0  0  0  0  0  0
    2.4055   -3.0714    0.8487 H   0  0  0  0  0  0  0  0  0  0  0  0
   -0.8442   -0.6112   -0.6880 H   0  0  0  0  0  0  0  0  0  0  0  0
  1  2  1  0
  2  3  1  0
  3  4  2  0
  4  5  1  0
  5  6  2  0
  6  7  1  0
  7  8  1  0
  8  9  1  0
  9 10  1  0
 10 11  2  0
 11 12  1  0
 12 13  2  0
 13 14  1  0
 14 15  1  0
 15 16  2  0
 16 17  1  0
 17 18  1  0
 18 19  2  0
 18 20  1  0
  7 21  2  0
 21  3  1  0
 17  9  2  0
 16 12  1  0
  1 22  1  0
  1 23  1  0
  1 24  1  0
  4 25  1  0
  5 26  1  0
  6 27  1  0
  8 28  1  0
 10 29  1  0
 11 30  1  0
 21 31  1  0
M  CHG  2  18   1  20  -1
M  END
$$$$
