
     RDKit          3D

 36 39  0  0  0  0  0  0  0  0999 V2000
    4.8872    0.6249    1.3841 C   0  0  0  0  0  0  0  0  0  0  0  0
    3.8869   -0.0385    2.0991 C   0  0  0  0  0  0  0  0  0  0  0  0
    2.7302   -0.4745    1.4460 C   0  0  0  0  0  0  0  0  0  0  0  0
    2.5685   -0.2571    0.0647 C   0  0  0  0  0  0  0  0  0  0  0  0
    1.3070   -0.6994   -0.6435 C   0  0  2  0  0  0  0  0  0  0  0  0
    0.1310    0.2531   -0.2929 C   0  0  0  0  0  0  0  0  0  0  0  0
   -1.2075   -0.2402   -0.8990 C   0  0  2  0  0  0  0  0  0  0  0  0
   -2.3698    0.5543   -0.3430 C   0  0  0  0  0  0  0  0  0  0  0  0
   -2.9964    1.5347   -1.1321 C   0  0  0  0  0  0  0  0  0  0  0  0
   -4.0544    2.2883   -0.6142 C   0  0  0  0  0  0  0  0  0  0  0  0
   -4.4904    2.0767    0.6962 C   0  0  0  0  0  0  0  0  0  0  0  0
   -3.8668    1.1135    1.4931 C   0  0  0  0  0  0  0  0  0  0  0  0
   -2.8086    0.3576    0.9801 C   0  0  0  0  0  0  0  0  0  0  0  0
   -1.3694   -1.6680   -0.6264 N   0  0  0  0  0  0  0  0  0  0  0  0
   -2.4544   -2.4060   -0.7711 N   0  0  0  0  0  0  0  0  0  0  0  0
   -2.1174   -3.6780   -0.5845 N   0  0  0  0  0  0  0  0  0  0  0  0
   -0.8121   -3.7838   -0.3486 N   0  0  0  0  0  0  0  0  0  0  0  0
   -0.3721   -2.5158   -0.3890 C   0  0  0  0  0  0  0  0  0  0  0  0
    0.9855   -2.0924   -0.2990 N   0  0  0  0  0  0  0  0  0  0  0  0
    3.5757    0.4228   -0.6426 C   0  0  0  0  0  0  0  0  0  0  0  0
    4.7308    0.8569    0.0153 C   0  0  0  0  0  0  0  0  0  0  0  0
    5.7815    0.9628    1.8915 H   0  0  0  0  0  0  0  0  0  0  0  0
    4.0063   -0.2123    3.1607 H   0  0  0  0  0  0  0  0  0  0  0  0
    1.9603   -0.9799    2.0158 H   0  0  0  0  0  0  0  0  0  0  0  0
    1.4642   -0.6551   -1.7444 H   0  0  0  0  0  0  0  0  0  0  0  0
    0.0339    0.3139    0.8139 H   0  0  0  0  0  0  0  0  0  0  0  0
    0.3532    1.2744   -0.6731 H   0  0  0  0  0  0  0  0  0  0  0  0
   -1.1541   -0.1112   -2.0030 H   0  0  0  0  0  0  0  0  0  0  0  0
   -2.6668    1.7172   -2.1473 H   0  0  0  0  0  0  0  0  0  0  0  0
   -4.5348    3.0388   -1.2286 H   0  0  0  0  0  0  0  0  0  0  0  0
   -5.3089    2.6618    1.0953 H   0  0  0  0  0  0  0  0  0  0  0  0
   -4.2017    0.9542    2.5099 H   0  0  0  0  0  0  0  0  0  0  0  0
   -2.3310   -0.3804    1.6127 H   0  0  0  0  0  0  0  0  0  0  0  0
    1.7429   -2.8081   -0.2200 H   0  0  0  0  0  0  0  0  0  0  0  0
    3.4676    0.6185   -1.7022 H   0  0  0  0  0  0  0  0  0  0  0  0
    5.5039    1.3763   -0.5362 H   0  0  0  0  0  0  0  0  0  0  0  0
  1  2  2  0
  2  3  1  0
  3  4  2  0
  4  5  1  0
  5  6  1  0
  6  7  1  0
  7  8  1  0
  8  9  2  0
  9 10  1  0
 10 11  2  0
 11 12  1  0
 12 13  2  0
  7 14  1  0
 14 15  1  0
 15 16  2  0
 16 17  1  0
 17 18  2  0
 18 19  1  0
  4 20  1  0
 20 21  2  0
 21  1  1  0
 19  5  1  0
 13  8  1  0
 18 14  1  0
  1 22  1  0
  2 23  1  0
  3 24  1  0
  5 25  1  6
  6 26  1  0
  6 27  1  0
  7 28  1  6
  9 29  1  0
 10 30  1  0
 11 31  1  0
 12 32  1  0
 13 33  1  0
 19 34  1  0
 20 35  1  0
 21 36  1  0
M  END
$$$$
