
     RDKit          3D

 27 29  0  0  0  0  0  0  0  0999 V2000
    1.2869   -2.8320    0.1384 O   0  0  0  0  0  0  0  0  0  0  0  0
    2.2576   -2.0815    0.3675 N   0  0  0  0  0  0  0  0  0  0  0  0
    3.4761   -2.6474    0.6637 O   0  0  0  0  0  0  0  0  0  0  0  0
    2.1388   -0.6566    0.2024 C   0  0  0  0  0  0  0  0  0  0  0  0
    0.9019    0.0323    0.3758 C   0  0  0  0  0  0  0  0  0  0  0  0
   -0.2608   -0.6621    0.8580 N   0  0  0  0  0  0  0  0  0  0  0  0
   -1.5921   -0.4361    0.3596 C   0  0  0  0  0  0  0  0  0  0  0  0
   -1.8074    0.0163   -0.9558 C   0  0  0  0  0  0  0  0  0  0  0  0
   -3.1064    0.2104   -1.4324 C   0  0  0  0  0  0  0  0  0  0  0  0
   -4.2022   -0.0542   -0.6087 C   0  0  0  0  0  0  0  0  0  0  0  0
   -4.0027   -0.5201    0.6944 C   0  0  0  0  0  0  0  0  0  0  0  0
   -5.3892   -0.8571    1.7175 Cl  0  0  0  0  0  0  0  0  0  0  0  0
   -2.7015   -0.7169    1.1773 C   0  0  0  0  0  0  0  0  0  0  0  0
   -2.5164   -1.1666    2.4449 F   0  0  0  0  0  0  0  0  0  0  0  0
    0.8414    1.4385    0.1652 C   0  0  0  0  0  0  0  0  0  0  0  0
    1.9819    2.1618   -0.2246 C   0  0  0  0  0  0  0  0  0  0  0  0
    3.1644    1.4532   -0.3788 C   0  0  0  0  0  0  0  0  0  0  0  0
    4.3710    1.9045   -0.7475 N   0  0  0  0  0  0  0  0  0  0  0  0
    5.1281    0.8356   -0.7549 O   0  0  0  0  0  0  0  0  0  0  0  0
    4.5056   -0.2681   -0.4216 N   0  0  0  0  0  0  0  0  0  0  0  0
    3.2442    0.1162   -0.1731 C   0  0  0  0  0  0  0  0  0  0  0  0
   -0.1310   -1.3374    1.6449 H   0  0  0  0  0  0  0  0  0  0  0  0
   -0.9732    0.2051   -1.6189 H   0  0  0  0  0  0  0  0  0  0  0  0
   -3.2637    0.5608   -2.4444 H   0  0  0  0  0  0  0  0  0  0  0  0
   -5.2056    0.0977   -0.9856 H   0  0  0  0  0  0  0  0  0  0  0  0
   -0.0862    1.9730    0.3251 H   0  0  0  0  0  0  0  0  0  0  0  0
    1.9405    3.2308   -0.3884 H   0  0  0  0  0  0  0  0  0  0  0  0
  1  2  2  0
  2  3  1  0
  2  4  1  0
  4  5  2  0
  5  6  1  0
  6  7  1  0
  7  8  2  0
  8  9  1  0
  9 10  2  0
 10 11  1  0
 11 12  1  0
 11 13  2  0
 13 14  1  0
  5 15  1  0
 15 16  2  0
 16 17  1  0
 17 18  2  0
 18 19  1  0
 19 20  1  0
 20 21  2  0
 21  4  1  0
 13  7  1  0
 21 17  1  0
  6 22  1  0
  8 23  1  0
  9 24  1  0
 10 25  1  0
 15 26  1  0
 16 27  1  0
M  CHG  2   2   1   3  -1
M  END
$$$$
