
     RDKit          3D

 30 32  0  0  0  0  0  0  0  0999 V2000
    1.2492    2.9230   -0.8494 O   0  0  0  0  0  0  0  0  0  0  0  0
    2.3574    2.4583   -0.5117 N   0  0  0  0  0  0  0  0  0  0  0  0
    3.4455    3.3002   -0.4793 O   0  0  0  0  0  0  0  0  0  0  0  0
    2.5238    1.0460   -0.2877 C   0  0  0  0  0  0  0  0  0  0  0  0
    1.4529    0.2096    0.1460 C   0  0  0  0  0  0  0  0  0  0  0  0
    0.1821    0.7761    0.5063 N   0  0  0  0  0  0  0  0  0  0  0  0
   -1.0851    0.1898    0.1587 C   0  0  0  0  0  0  0  0  0  0  0  0
   -1.2194   -0.6489   -0.9616 C   0  0  0  0  0  0  0  0  0  0  0  0
   -2.4610   -1.2015   -1.2832 C   0  0  0  0  0  0  0  0  0  0  0  0
   -2.5774   -2.0250   -2.3541 F   0  0  0  0  0  0  0  0  0  0  0  0
   -3.5836   -0.9071   -0.5054 C   0  0  0  0  0  0  0  0  0  0  0  0
   -3.4795   -0.0347    0.5914 C   0  0  0  0  0  0  0  0  0  0  0  0
   -4.6823    0.2487    1.4561 C   0  0  0  0  0  0  0  0  0  0  0  0
   -5.8437    0.2171    0.7032 F   0  0  0  0  0  0  0  0  0  0  0  0
   -4.7637   -0.7087    2.4500 F   0  0  0  0  0  0  0  0  0  0  0  0
   -4.5810    1.4989    2.0414 F   0  0  0  0  0  0  0  0  0  0  0  0
   -2.2202    0.4955    0.9254 C   0  0  0  0  0  0  0  0  0  0  0  0
    1.6717   -1.1858    0.3188 C   0  0  0  0  0  0  0  0  0  0  0  0
    2.9274   -1.7597    0.0548 C   0  0  0  0  0  0  0  0  0  0  0  0
    3.9416   -0.9102   -0.3622 C   0  0  0  0  0  0  0  0  0  0  0  0
    5.2079   -1.2095   -0.6826 N   0  0  0  0  0  0  0  0  0  0  0  0
    5.7354   -0.0604   -1.0248 O   0  0  0  0  0  0  0  0  0  0  0  0
    4.9102    0.9547   -0.9515 N   0  0  0  0  0  0  0  0  0  0  0  0
    3.7555    0.4224   -0.5226 C   0  0  0  0  0  0  0  0  0  0  0  0
    0.1838    1.6403    1.0944 H   0  0  0  0  0  0  0  0  0  0  0  0
   -0.3676   -0.8706   -1.5913 H   0  0  0  0  0  0  0  0  0  0  0  0
   -4.5342   -1.3575   -0.7627 H   0  0  0  0  0  0  0  0  0  0  0  0
   -2.1159    1.1406    1.7892 H   0  0  0  0  0  0  0  0  0  0  0  0
    0.8720   -1.8210    0.6777 H   0  0  0  0  0  0  0  0  0  0  0  0
    3.0983   -2.8207    0.1821 H   0  0  0  0  0  0  0  0  0  0  0  0
  1  2  2  0
  2  3  1  0
  2  4  1  0
  4  5  2  0
  5  6  1  0
  6  7  1  0
  7  8  2  0
  8  9  1  0
  9 10  1  0
  9 11  2  0
 11 12  1  0
 12 13  1  0
 13 14  1  0
 13 15  1  0
 13 16  1  0
 12 17  2  0
  5 18  1  0
 18 19  2  0
 19 20  1  0
 20 21  2  0
 21 22  1  0
 22 23  1  0
 23 24  2  0
 24  4  1  0
 17  7  1  0
 24 20  1  0
  6 25  1  0
  8 26  1  0
 11 27  1  0
 17 28  1  0
 18 29  1  0
 19 30  1  0
M  CHG  2   2   1   3  -1
M  END
$$$$
