_rank7
     RDKit          3D

 16 17  0  0  0  0  0  0  0  0999 V2000
   19.0054   -0.7697  -11.2288 C   0  0  0  0  0  0  0  0  0  0  0  0
   20.0951   -1.3751  -10.4143 C   0  0  1  0  0  0  0  0  0  0  0  0
   21.2316   -1.9331  -11.2136 C   0  0  0  0  0  0  0  0  0  0  0  0
   22.2563   -0.7935  -11.2694 C   0  0  2  0  0  0  0  0  0  0  0  0
   23.3669   -1.0590  -10.4780 O   0  0  0  0  0  0  0  0  0  0  0  0
   24.6393   -0.5938  -10.6497 C   0  0  0  0  0  0  0  0  0  0  0  0
   25.2336   -0.3240  -11.8643 C   0  0  0  0  0  0  0  0  0  0  0  0
   26.5415    0.1488  -11.9236 C   0  0  0  0  0  0  0  0  0  0  0  0
   27.1314    0.4162  -13.1178 F   0  0  0  0  0  0  0  0  0  0  0  0
   27.2823    0.3623  -10.7839 C   0  0  0  0  0  0  0  0  0  0  0  0
   26.6952    0.0949   -9.5662 C   0  0  0  0  0  0  0  0  0  0  0  0
   27.4730    0.3186   -8.3588 C   0  0  0  0  0  0  0  0  0  0  0  0
   28.1008    0.5101   -7.4104 N   0  0  0  0  0  0  0  0  0  0  0  0
   25.4052   -0.3708   -9.5207 C   0  0  0  0  0  0  0  0  0  0  0  0
   21.4620    0.3184  -10.5980 C   0  0  0  0  0  0  0  0  0  0  0  0
   20.7042   -0.3806   -9.6587 O   0  0  0  0  0  0  0  0  0  0  0  0
  1  2  1  6
  3  2  1  1
  3  4  1  0
  4  5  1  1
  5  6  1  0
  6  7  2  0
  7  8  1  0
  8  9  1  0
  8 10  2  0
 10 11  1  0
 11 12  1  0
 12 13  3  0
 11 14  2  0
  4 15  1  0
 15 16  1  6
  2 16  1  1
 14  6  1  0
M  END
$$$$
