_rank16
     RDKit          3D

 16 17  0  0  0  0  0  0  0  0999 V2000
   19.0071    0.2983  -11.0630 C   0  0  0  0  0  0  0  0  0  0  0  0
   20.2188   -0.2124  -11.7619 C   0  0  1  0  0  0  0  0  0  0  0  0
   21.4606    0.5877  -11.5174 C   0  0  0  0  0  0  0  0  0  0  0  0
   22.1504   -0.1239  -10.3471 C   0  0  2  0  0  0  0  0  0  0  0  0
   23.2931   -0.8005  -10.7558 O   0  0  0  0  0  0  0  0  0  0  0  0
   24.5624   -0.3055  -10.8492 C   0  0  0  0  0  0  0  0  0  0  0  0
   25.1956    0.0525  -12.0206 C   0  0  0  0  0  0  0  0  0  0  0  0
   26.4961    0.5481  -12.0000 C   0  0  0  0  0  0  0  0  0  0  0  0
   27.1243    0.9022  -13.1514 F   0  0  0  0  0  0  0  0  0  0  0  0
   27.1911    0.6977  -10.8219 C   0  0  0  0  0  0  0  0  0  0  0  0
   26.5649    0.3420   -9.6470 C   0  0  0  0  0  0  0  0  0  0  0  0
   27.2943    0.4979   -8.3994 C   0  0  0  0  0  0  0  0  0  0  0  0
   27.8799    0.6393   -7.4159 N   0  0  0  0  0  0  0  0  0  0  0  0
   25.2827   -0.1454   -9.6803 C   0  0  0  0  0  0  0  0  0  0  0  0
   21.0933   -1.1635  -10.0009 C   0  0  0  0  0  0  0  0  0  0  0  0
   20.5469   -1.4615  -11.2491 O   0  0  0  0  0  0  0  0  0  0  0  0
  1  2  1  6
  3  2  1  1
  3  4  1  0
  4  5  1  6
  5  6  1  0
  6  7  2  0
  7  8  1  0
  8  9  1  0
  8 10  2  0
 10 11  1  0
 11 12  1  0
 12 13  3  0
 11 14  2  0
  4 15  1  0
 15 16  1  6
  2 16  1  1
 14  6  1  0
M  END
$$$$
