_rank1
     RDKit          3D

 16 17  0  0  0  0  0  0  0  0999 V2000
   27.2723    0.6677   -9.0007 C   0  0  0  0  0  0  0  0  0  0  0  0
   26.3179   -0.4428   -9.2717 C   0  0  1  0  0  0  0  0  0  0  0  0
   24.8743   -0.0668   -9.1420 C   0  0  0  0  0  0  0  0  0  0  0  0
   24.4461    0.3055  -10.5667 C   0  0  2  0  0  0  0  0  0  0  0  0
   23.6077   -0.6539  -11.1209 O   0  0  0  0  0  0  0  0  0  0  0  0
   22.2900   -0.8699  -10.8351 C   0  0  0  0  0  0  0  0  0  0  0  0
   21.6169   -2.0588  -11.0218 C   0  0  0  0  0  0  0  0  0  0  0  0
   20.2684   -2.1684  -10.6950 C   0  0  0  0  0  0  0  0  0  0  0  0
   19.6009   -3.3376  -10.8771 F   0  0  0  0  0  0  0  0  0  0  0  0
   19.5639   -1.1052  -10.1787 C   0  0  0  0  0  0  0  0  0  0  0  0
   20.2296    0.0864   -9.9892 C   0  0  0  0  0  0  0  0  0  0  0  0
   19.4905    1.2131   -9.4441 C   0  0  0  0  0  0  0  0  0  0  0  0
   18.8897    2.0944   -9.0054 N   0  0  0  0  0  0  0  0  0  0  0  0
   21.5591    0.1820  -10.3152 C   0  0  0  0  0  0  0  0  0  0  0  0
   25.7867    0.2214  -11.2834 C   0  0  0  0  0  0  0  0  0  0  0  0
   26.4236   -0.8179  -10.6054 O   0  0  0  0  0  0  0  0  0  0  0  0
  1  2  1  6
  3  2  1  1
  3  4  1  0
  4  5  1  6
  5  6  1  0
  6  7  2  0
  7  8  1  0
  8  9  1  0
  8 10  2  0
 10 11  1  0
 11 12  1  0
 12 13  3  0
 11 14  2  0
  4 15  1  0
 15 16  1  6
  2 16  1  6
 14  6  1  0
M  END
$$$$
