_rank4
     RDKit          3D

 16 17  0  0  0  0  0  0  0  0999 V2000
   19.0621   -0.6765  -11.1486 C   0  0  0  0  0  0  0  0  0  0  0  0
   20.1691   -1.3981  -10.4620 C   0  0  1  0  0  0  0  0  0  0  0  0
   21.2758   -1.8436  -11.3669 C   0  0  0  0  0  0  0  0  0  0  0  0
   22.3101   -0.7139  -11.2918 C   0  0  2  0  0  0  0  0  0  0  0  0
   23.4407   -1.0958  -10.5804 O   0  0  0  0  0  0  0  0  0  0  0  0
   24.7184   -0.6432  -10.7463 C   0  0  0  0  0  0  0  0  0  0  0  0
   25.2590   -0.1954  -11.9332 C   0  0  0  0  0  0  0  0  0  0  0  0
   26.5781    0.2454  -11.9890 C   0  0  0  0  0  0  0  0  0  0  0  0
   27.1153    0.6875  -13.1559 F   0  0  0  0  0  0  0  0  0  0  0  0
   27.3834    0.2508  -10.8733 C   0  0  0  0  0  0  0  0  0  0  0  0
   26.8502   -0.1952   -9.6834 C   0  0  0  0  0  0  0  0  0  0  0  0
   27.6962   -0.1918   -8.5015 C   0  0  0  0  0  0  0  0  0  0  0  0
   28.3551   -0.1758   -7.5550 N   0  0  0  0  0  0  0  0  0  0  0  0
   25.5485   -0.6273   -9.6411 C   0  0  0  0  0  0  0  0  0  0  0  0
   21.5474    0.2961  -10.4454 C   0  0  0  0  0  0  0  0  0  0  0  0
   20.8104   -0.5247   -9.5920 O   0  0  0  0  0  0  0  0  0  0  0  0
  1  2  1  6
  3  2  1  1
  3  4  1  0
  4  5  1  1
  5  6  1  0
  6  7  2  0
  7  8  1  0
  8  9  1  0
  8 10  2  0
 10 11  1  0
 11 12  1  0
 12 13  3  0
 11 14  2  0
  4 15  1  0
 15 16  1  6
  2 16  1  1
 14  6  1  0
M  END
$$$$
