_rank20
     RDKit          3D

 16 17  0  0  0  0  0  0  0  0999 V2000
   28.7925   -1.0543  -10.8153 C   0  0  0  0  0  0  0  0  0  0  0  0
   27.7428   -0.3519  -10.0266 C   0  0  1  0  0  0  0  0  0  0  0  0
   26.8703    0.5627  -10.8293 C   0  0  0  0  0  0  0  0  0  0  0  0
   25.6545   -0.2955  -11.1999 C   0  0  2  0  0  0  0  0  0  0  0  0
   24.5188    0.0880  -10.4974 O   0  0  0  0  0  0  0  0  0  0  0  0
   23.2946   -0.5170  -10.5041 C   0  0  0  0  0  0  0  0  0  0  0  0
   22.5757   -0.8521  -11.6321 C   0  0  0  0  0  0  0  0  0  0  0  0
   21.3325   -1.4685  -11.5227 C   0  0  0  0  0  0  0  0  0  0  0  0
   20.6205   -1.8007  -12.6310 F   0  0  0  0  0  0  0  0  0  0  0  0
   20.7803   -1.7633  -10.2974 C   0  0  0  0  0  0  0  0  0  0  0  0
   21.4927   -1.4314   -9.1654 C   0  0  0  0  0  0  0  0  0  0  0  0
   20.9143   -1.7405   -7.8682 C   0  0  0  0  0  0  0  0  0  0  0  0
   20.4421   -1.9708   -6.8415 N   0  0  0  0  0  0  0  0  0  0  0  0
   22.7172   -0.8241   -9.2862 C   0  0  0  0  0  0  0  0  0  0  0  0
   26.1015   -1.6467  -10.6591 C   0  0  0  0  0  0  0  0  0  0  0  0
   26.8422   -1.2881   -9.5331 O   0  0  0  0  0  0  0  0  0  0  0  0
  1  2  1  6
  3  2  1  1
  3  4  1  0
  4  5  1  1
  5  6  1  0
  6  7  2  0
  7  8  1  0
  8  9  1  0
  8 10  2  0
 10 11  1  0
 11 12  1  0
 12 13  3  0
 11 14  2  0
  4 15  1  0
 15 16  1  6
  2 16  1  6
 14  6  1  0
M  END
$$$$
