_rank16
     RDKit          3D

 24 26  0  0  0  0  0  0  0  0999 V2000
   28.8171   -1.5343   -9.4960 C   0  0  0  0  0  0  0  0  0  0  0  0
   27.6284   -0.3460   -8.9124 S   0  0  1  0  0  6  0  0  0  0  0  0
   27.3172   -0.6478   -7.4625 O   0  0  0  0  0  0  0  0  0  0  0  0
   28.1816    1.0515   -9.0086 O   0  0  0  0  0  0  0  0  0  0  0  0
   26.1804   -0.5246   -9.8358 C   0  0  0  0  0  0  0  0  0  0  0  0
   25.1459   -1.2882   -9.3402 C   0  0  0  0  0  0  0  0  0  0  0  0
   23.9554   -1.4930   -9.9948 C   0  0  0  0  0  0  0  0  0  0  0  0
   23.8063   -0.8876  -11.2239 C   0  0  0  0  0  0  0  0  0  0  0  0
   22.6122   -1.0605  -11.9396 O   0  0  0  0  0  0  0  0  0  0  0  0
   21.3999   -0.7942  -11.3320 C   0  0  0  0  0  0  0  0  0  0  0  0
   21.0928    0.5186  -11.0513 C   0  0  0  0  0  0  0  0  0  0  0  0
   19.8770    0.7749  -10.4431 C   0  0  0  0  0  0  0  0  0  0  0  0
   19.5876    2.0763  -10.1720 F   0  0  0  0  0  0  0  0  0  0  0  0
   19.0302   -0.2590  -10.1429 C   0  0  0  0  0  0  0  0  0  0  0  0
   19.3212   -1.5791  -10.4167 C   0  0  0  0  0  0  0  0  0  0  0  0
   18.3990   -2.6410  -10.0832 C   0  0  0  0  0  0  0  0  0  0  0  0
   17.6662   -3.5014   -9.8008 N   0  0  0  0  0  0  0  0  0  0  0  0
   20.5339   -1.8392  -11.0238 C   0  0  0  0  0  0  0  0  0  0  0  0
   24.8076   -0.1142  -11.7659 C   0  0  0  0  0  0  0  0  0  0  0  0
   25.9979    0.0717  -11.0770 C   0  0  0  0  0  0  0  0  0  0  0  0
   26.8773    0.9377  -11.8896 C   0  0  2  0  0  0  0  0  0  0  0  0
   26.6668    2.3011  -11.6208 O   0  0  0  0  0  0  0  0  0  0  0  0
   26.3418    0.7058  -13.2975 C   0  0  0  0  0  0  0  0  0  0  0  0
   24.8430    0.6165  -13.0634 C   0  0  0  0  0  0  0  0  0  0  0  0
  1  2  1  6
  2  3  2  0
  2  4  2  0
  2  5  1  6
  5  6  2  0
  6  7  1  0
  7  8  2  0
  8  9  1  0
  9 10  1  0
 10 11  2  0
 11 12  1  0
 12 13  1  0
 12 14  2  0
 14 15  1  0
 15 16  1  0
 16 17  3  0
 15 18  2  0
  8 19  1  0
 19 20  2  0
 20 21  1  0
 21 22  1  1
 21 23  1  0
 23 24  1  6
 20  5  1  0
 18 10  1  0
 24 19  1  6
M  END
$$$$
