_rank8
     RDKit          3D

 24 26  0  0  0  0  0  0  0  0999 V2000
   27.2021   -0.1091   -7.1687 C   0  0  0  0  0  0  0  0  0  0  0  0
   27.6477   -0.0170   -8.8888 S   0  0  1  0  0  6  0  0  0  0  0  0
   28.2022    1.3628   -9.1697 O   0  0  0  0  0  0  0  0  0  0  0  0
   28.7021   -1.0398   -9.2209 O   0  0  0  0  0  0  0  0  0  0  0  0
   26.2206   -0.2407   -9.8346 C   0  0  0  0  0  0  0  0  0  0  0  0
   25.0934   -0.7771   -9.2510 C   0  0  0  0  0  0  0  0  0  0  0  0
   23.9102   -0.9955   -9.9144 C   0  0  0  0  0  0  0  0  0  0  0  0
   23.8689   -0.6493  -11.2478 C   0  0  0  0  0  0  0  0  0  0  0  0
   22.6877   -0.8491  -11.9778 O   0  0  0  0  0  0  0  0  0  0  0  0
   21.4707   -0.8822  -11.3237 C   0  0  0  0  0  0  0  0  0  0  0  0
   20.8076   -2.0871  -11.2541 C   0  0  0  0  0  0  0  0  0  0  0  0
   19.5902   -2.1099  -10.5973 C   0  0  0  0  0  0  0  0  0  0  0  0
   18.9470   -3.3073  -10.5366 F   0  0  0  0  0  0  0  0  0  0  0  0
   19.0877   -0.9609  -10.0465 C   0  0  0  0  0  0  0  0  0  0  0  0
   19.7378    0.2540  -10.1067 C   0  0  0  0  0  0  0  0  0  0  0  0
   19.1724    1.4439   -9.5118 C   0  0  0  0  0  0  0  0  0  0  0  0
   18.7220    2.4121   -9.0464 N   0  0  0  0  0  0  0  0  0  0  0  0
   20.9534    0.2811  -10.7614 C   0  0  0  0  0  0  0  0  0  0  0  0
   24.9657   -0.1097  -11.8806 C   0  0  0  0  0  0  0  0  0  0  0  0
   26.1454    0.0975  -11.1798 C   0  0  0  0  0  0  0  0  0  0  0  0
   27.1401    0.6825  -12.1026 C   0  0  2  0  0  0  0  0  0  0  0  0
   27.0699    2.0859  -12.1308 O   0  0  0  0  0  0  0  0  0  0  0  0
   26.6300    0.2151  -13.4605 C   0  0  0  0  0  0  0  0  0  0  0  0
   25.1234    0.3257  -13.2963 C   0  0  0  0  0  0  0  0  0  0  0  0
  1  2  1  6
  2  3  2  0
  2  4  2  0
  2  5  1  6
  5  6  2  0
  6  7  1  0
  7  8  2  0
  8  9  1  0
  9 10  1  0
 10 11  2  0
 11 12  1  0
 12 13  1  0
 12 14  2  0
 14 15  1  0
 15 16  1  0
 16 17  3  0
 15 18  2  0
  8 19  1  0
 19 20  2  0
 20 21  1  0
 21 22  1  6
 21 23  1  0
 23 24  1  6
 20  5  1  0
 18 10  1  0
 24 19  1  6
M  END
$$$$
