_rank17
     RDKit          3D

 24 26  0  0  0  0  0  0  0  0999 V2000
   26.9318    1.8252  -13.8889 C   0  0  0  0  0  0  0  0  0  0  0  0
   27.4876    0.7203  -12.6098 S   0  0  1  0  0  6  0  0  0  0  0  0
   27.9885   -0.5528  -13.2567 O   0  0  0  0  0  0  0  0  0  0  0  0
   28.6130    1.3397  -11.8236 O   0  0  0  0  0  0  0  0  0  0  0  0
   26.1410    0.3331  -11.6007 C   0  0  0  0  0  0  0  0  0  0  0  0
   24.8804    0.2459  -12.1502 C   0  0  0  0  0  0  0  0  0  0  0  0
   23.7461   -0.0550  -11.4357 C   0  0  0  0  0  0  0  0  0  0  0  0
   23.9004   -0.2804  -10.0849 C   0  0  0  0  0  0  0  0  0  0  0  0
   22.7779   -0.5919   -9.3031 O   0  0  0  0  0  0  0  0  0  0  0  0
   21.5101   -0.4765   -9.8409 C   0  0  0  0  0  0  0  0  0  0  0  0
   20.9823    0.7872   -9.9850 C   0  0  0  0  0  0  0  0  0  0  0  0
   19.7127    0.8922  -10.5243 C   0  0  0  0  0  0  0  0  0  0  0  0
   19.2046    2.1469  -10.6606 F   0  0  0  0  0  0  0  0  0  0  0  0
   19.0296   -0.2367  -10.8923 C   0  0  0  0  0  0  0  0  0  0  0  0
   19.5424   -1.5096  -10.7552 C   0  0  0  0  0  0  0  0  0  0  0  0
   18.7879   -2.6754  -11.1563 C   0  0  0  0  0  0  0  0  0  0  0  0
   18.1923   -3.6254  -11.4724 N   0  0  0  0  0  0  0  0  0  0  0  0
   20.8096   -1.6188  -10.2172 C   0  0  0  0  0  0  0  0  0  0  0  0
   25.1367   -0.2062   -9.4844 C   0  0  0  0  0  0  0  0  0  0  0  0
   26.2620    0.1002  -10.2366 C   0  0  0  0  0  0  0  0  0  0  0  0
   27.4356    0.1090   -9.3388 C   0  0  2  0  0  0  0  0  0  0  0  0
   28.0229   -1.1631   -9.2285 O   0  0  0  0  0  0  0  0  0  0  0  0
   26.7987    0.3899   -7.9830 C   0  0  0  0  0  0  0  0  0  0  0  0
   25.5107   -0.4129   -8.0575 C   0  0  0  0  0  0  0  0  0  0  0  0
  1  2  1  6
  2  3  2  0
  2  4  2  0
  2  5  1  1
  5  6  2  0
  6  7  1  0
  7  8  2  0
  8  9  1  0
  9 10  1  0
 10 11  2  0
 11 12  1  0
 12 13  1  0
 12 14  2  0
 14 15  1  0
 15 16  1  0
 16 17  3  0
 15 18  2  0
  8 19  1  0
 19 20  2  0
 20 21  1  0
 21 22  1  1
 21 23  1  0
 23 24  1  6
 20  5  1  0
 18 10  1  0
 24 19  1  6
M  END
$$$$
