_rank10
     RDKit          3D

 24 26  0  0  0  0  0  0  0  0999 V2000
   28.6809   -1.5288   -9.0692 C   0  0  0  0  0  0  0  0  0  0  0  0
   27.7237   -0.0852   -8.6623 S   0  0  1  0  0  6  0  0  0  0  0  0
   27.2952   -0.1834   -7.2143 O   0  0  0  0  0  0  0  0  0  0  0  0
   28.5442    1.1650   -8.8412 O   0  0  0  0  0  0  0  0  0  0  0  0
   26.3114   -0.0697   -9.6555 C   0  0  0  0  0  0  0  0  0  0  0  0
   25.0757   -0.2884   -9.0864 C   0  0  0  0  0  0  0  0  0  0  0  0
   23.8938   -0.2968   -9.7870 C   0  0  0  0  0  0  0  0  0  0  0  0
   23.9708   -0.0700  -11.1442 C   0  0  0  0  0  0  0  0  0  0  0  0
   22.7970   -0.0667  -11.9125 O   0  0  0  0  0  0  0  0  0  0  0  0
   21.5903   -0.4023  -11.3285 C   0  0  0  0  0  0  0  0  0  0  0  0
   21.1716   -1.7112  -11.4177 C   0  0  0  0  0  0  0  0  0  0  0  0
   19.9624   -2.0371  -10.8300 C   0  0  0  0  0  0  0  0  0  0  0  0
   19.5619   -3.3338  -10.9263 F   0  0  0  0  0  0  0  0  0  0  0  0
   19.2302   -1.0726  -10.1898 C   0  0  0  0  0  0  0  0  0  0  0  0
   19.6340    0.2424  -10.0907 C   0  0  0  0  0  0  0  0  0  0  0  0
   18.8308    1.2299   -9.4057 C   0  0  0  0  0  0  0  0  0  0  0  0
   18.1975    2.0297   -8.8435 N   0  0  0  0  0  0  0  0  0  0  0  0
   20.8405    0.5720  -10.6761 C   0  0  0  0  0  0  0  0  0  0  0  0
   25.1792    0.1541  -11.7641 C   0  0  0  0  0  0  0  0  0  0  0  0
   26.3541    0.1557  -11.0255 C   0  0  0  0  0  0  0  0  0  0  0  0
   27.4818    0.4208  -11.9428 C   0  0  2  0  0  0  0  0  0  0  0  0
   27.7305    1.7966  -12.0866 O   0  0  0  0  0  0  0  0  0  0  0  0
   26.9197   -0.0406  -13.2821 C   0  0  0  0  0  0  0  0  0  0  0  0
   25.4726    0.4160  -13.2007 C   0  0  0  0  0  0  0  0  0  0  0  0
  1  2  1  6
  2  3  2  0
  2  4  2  0
  2  5  1  6
  5  6  2  0
  6  7  1  0
  7  8  2  0
  8  9  1  0
  9 10  1  0
 10 11  2  0
 11 12  1  0
 12 13  1  0
 12 14  2  0
 14 15  1  0
 15 16  1  0
 16 17  3  0
 15 18  2  0
  8 19  1  0
 19 20  2  0
 20 21  1  0
 21 22  1  6
 21 23  1  0
 23 24  1  6
 20  5  1  0
 18 10  1  0
 24 19  1  6
M  END
$$$$
