_rank13
     RDKit          3D

 24 26  0  0  0  0  0  0  0  0999 V2000
   28.8585   -1.2347   -9.4763 C   0  0  0  0  0  0  0  0  0  0  0  0
   27.6347   -0.3126   -8.5719 S   0  0  1  0  0  6  0  0  0  0  0  0
   27.2941   -1.0735   -7.3088 O   0  0  0  0  0  0  0  0  0  0  0  0
   28.1647    1.0449   -8.1918 O   0  0  0  0  0  0  0  0  0  0  0  0
   26.2128   -0.1938   -9.5443 C   0  0  0  0  0  0  0  0  0  0  0  0
   24.9880   -0.5186   -9.0030 C   0  0  0  0  0  0  0  0  0  0  0  0
   23.7999   -0.4584   -9.6905 C   0  0  0  0  0  0  0  0  0  0  0  0
   23.8587   -0.0444  -11.0037 C   0  0  0  0  0  0  0  0  0  0  0  0
   22.6777    0.0370  -11.7567 O   0  0  0  0  0  0  0  0  0  0  0  0
   21.4584   -0.2100  -11.1548 C   0  0  0  0  0  0  0  0  0  0  0  0
   20.8581    0.8200  -10.4656 C   0  0  0  0  0  0  0  0  0  0  0  0
   19.6378    0.5629   -9.8667 C   0  0  0  0  0  0  0  0  0  0  0  0
   19.0569    1.5900   -9.1895 F   0  0  0  0  0  0  0  0  0  0  0  0
   19.0717   -0.6799   -9.9722 C   0  0  0  0  0  0  0  0  0  0  0  0
   19.6585   -1.7227  -10.6581 C   0  0  0  0  0  0  0  0  0  0  0  0
   19.0270   -3.0200  -10.7453 C   0  0  0  0  0  0  0  0  0  0  0  0
   18.5340   -4.0730  -10.8179 N   0  0  0  0  0  0  0  0  0  0  0  0
   20.8767   -1.4702  -11.2574 C   0  0  0  0  0  0  0  0  0  0  0  0
   25.0555    0.2921  -11.5943 C   0  0  0  0  0  0  0  0  0  0  0  0
   26.2372    0.2197  -10.8702 C   0  0  0  0  0  0  0  0  0  0  0  0
   27.3497    0.6360  -11.7491 C   0  0  2  0  0  0  0  0  0  0  0  0
   27.5655    2.0240  -11.7027 O   0  0  0  0  0  0  0  0  0  0  0  0
   26.7853    0.3508  -13.1357 C   0  0  0  0  0  0  0  0  0  0  0  0
   25.3291    0.7570  -12.9827 C   0  0  0  0  0  0  0  0  0  0  0  0
  1  2  1  6
  2  3  2  0
  2  4  2  0
  2  5  1  6
  5  6  2  0
  6  7  1  0
  7  8  2  0
  8  9  1  0
  9 10  1  0
 10 11  2  0
 11 12  1  0
 12 13  1  0
 12 14  2  0
 14 15  1  0
 15 16  1  0
 16 17  3  0
 15 18  2  0
  8 19  1  0
 19 20  2  0
 20 21  1  0
 21 22  1  6
 21 23  1  0
 23 24  1  6
 20  5  1  0
 18 10  1  0
 24 19  1  6
M  END
$$$$
