_rank18
     RDKit          3D

 20 21  0  0  0  0  0  0  0  0999 V2000
   28.0450    1.0061  -13.3745 C   0  0  0  0  0  0  0  0  0  0  0  0
   27.9987    0.6265  -11.9172 C   0  0  0  0  0  0  0  0  0  0  0  0
   26.7394    0.6045  -11.3821 O   0  0  0  0  0  0  0  0  0  0  0  0
   26.6846    0.2944  -10.0450 C   0  0  1  0  0  0  0  0  0  0  0  0
   27.1103    1.4842   -9.1683 C   0  0  0  0  0  0  0  0  0  0  0  0
   25.8782    2.6818   -9.7142 S   0  0  1  0  0  6  0  0  0  0  0  0
   25.2168    3.3416   -8.5597 O   0  0  0  0  0  0  0  0  0  0  0  0
   26.4459    3.6188  -10.7111 O   0  0  0  0  0  0  0  0  0  0  0  0
   24.7518    1.5102  -10.4996 C   0  0  0  0  0  0  0  0  0  0  0  0
   25.1761    0.2551   -9.7009 C   0  0  1  0  0  0  0  0  0  0  0  0
   24.5708   -0.8822  -10.1574 O   0  0  0  0  0  0  0  0  0  0  0  0
   23.2269   -1.1511  -10.0277 C   0  0  0  0  0  0  0  0  0  0  0  0
   22.5965   -1.2770   -8.8160 C   0  0  0  0  0  0  0  0  0  0  0  0
   21.2333   -1.5498   -8.7426 C   0  0  0  0  0  0  0  0  0  0  0  0
   20.6444   -1.6673   -7.5227 F   0  0  0  0  0  0  0  0  0  0  0  0
   20.4668   -1.7035   -9.8630 C   0  0  0  0  0  0  0  0  0  0  0  0
   21.0902   -1.5791  -11.0968 C   0  0  0  0  0  0  0  0  0  0  0  0
   20.2567   -1.7462  -12.2522 C   0  0  0  0  0  0  0  0  0  0  0  0
   19.5810   -1.8967  -13.1782 N   0  0  0  0  0  0  0  0  0  0  0  0
   22.4324   -1.3104  -11.1777 C   0  0  0  0  0  0  0  0  0  0  0  0
  1  2  1  6
  2  3  1  6
  4  3  1  6
  5  4  1  1
  6  5  1  1
  6  7  2  0
  6  8  2  0
  6  9  1  0
  9 10  1  1
 10 11  1  6
 11 12  1  0
 12 13  2  0
 13 14  1  0
 14 15  1  0
 14 16  2  0
 16 17  1  0
 17 18  1  0
 18 19  3  0
 17 20  2  0
 10  4  1  0
 20 12  1  0
M  END
$$$$
