_rank1
     RDKit          3D

 20 21  0  0  0  0  0  0  0  0999 V2000
   26.8770    0.0475   -7.8125 C   0  0  0  0  0  0  0  0  0  0  0  0
   27.5972   -0.3901   -9.0615 C   0  0  0  0  0  0  0  0  0  0  0  0
   26.8048   -0.4489  -10.1756 O   0  0  0  0  0  0  0  0  0  0  0  0
   25.9876    0.6395  -10.3620 C   0  0  1  0  0  0  0  0  0  0  0  0
   26.5421    1.5880  -11.4382 C   0  0  0  0  0  0  0  0  0  0  0  0
   26.5872    0.4348  -12.8233 S   0  0  1  0  0  6  0  0  0  0  0  0
   25.9625    1.0217  -14.0361 O   0  0  0  0  0  0  0  0  0  0  0  0
   27.9539   -0.0957  -13.0351 O   0  0  0  0  0  0  0  0  0  0  0  0
   25.5108   -0.8253  -12.1078 C   0  0  0  0  0  0  0  0  0  0  0  0
   24.7535    0.0930  -11.1196 C   0  0  1  0  0  0  0  0  0  0  0  0
   23.9112   -0.6054  -10.3005 O   0  0  0  0  0  0  0  0  0  0  0  0
   22.5505   -0.7008  -10.4869 C   0  0  0  0  0  0  0  0  0  0  0  0
   21.9574   -1.7002  -11.2155 C   0  0  0  0  0  0  0  0  0  0  0  0
   20.5749   -1.7488  -11.3722 C   0  0  0  0  0  0  0  0  0  0  0  0
   20.0243   -2.7553  -12.1019 F   0  0  0  0  0  0  0  0  0  0  0  0
   19.7520   -0.8126  -10.8130 C   0  0  0  0  0  0  0  0  0  0  0  0
   20.3371    0.2052  -10.0726 C   0  0  0  0  0  0  0  0  0  0  0  0
   19.4447    1.1711   -9.4997 C   0  0  0  0  0  0  0  0  0  0  0  0
   18.7271    1.9419   -9.0227 N   0  0  0  0  0  0  0  0  0  0  0  0
   21.6980    0.2603   -9.9136 C   0  0  0  0  0  0  0  0  0  0  0  0
  1  2  1  6
  2  3  1  6
  4  3  1  6
  5  4  1  1
  6  5  1  1
  6  7  2  0
  6  8  2  0
  6  9  1  0
  9 10  1  1
 10 11  1  1
 11 12  1  0
 12 13  2  0
 13 14  1  0
 14 15  1  0
 14 16  2  0
 16 17  1  0
 17 18  1  0
 18 19  3  0
 17 20  2  0
 10  4  1  0
 20 12  1  0
M  END
$$$$
