_rank16
     RDKit          3D

 20 21  0  0  0  0  0  0  0  0999 V2000
   25.1002    3.6448  -10.7761 C   0  0  0  0  0  0  0  0  0  0  0  0
   26.0164    2.6120  -11.3793 C   0  0  0  0  0  0  0  0  0  0  0  0
   26.5071    1.7034  -10.4815 O   0  0  0  0  0  0  0  0  0  0  0  0
   26.8526    0.4875  -11.0194 C   0  0  1  0  0  0  0  0  0  0  0  0
   28.0454   -0.1419  -10.2803 C   0  0  0  0  0  0  0  0  0  0  0  0
   27.3304   -0.2261   -8.6274 S   0  0  1  0  0  6  0  0  0  0  0  0
   27.5183   -1.5705   -8.0249 O   0  0  0  0  0  0  0  0  0  0  0  0
   27.8021    0.8945   -7.7814 O   0  0  0  0  0  0  0  0  0  0  0  0
   25.6076    0.0121   -9.1103 C   0  0  0  0  0  0  0  0  0  0  0  0
   25.7359   -0.4852  -10.5696 C   0  0  1  0  0  0  0  0  0  0  0  0
   24.5822   -0.3133  -11.2820 O   0  0  0  0  0  0  0  0  0  0  0  0
   23.3686   -0.8647  -10.9378 C   0  0  0  0  0  0  0  0  0  0  0  0
   23.0756   -1.3148   -9.6756 C   0  0  0  0  0  0  0  0  0  0  0  0
   21.8307   -1.8644   -9.3820 C   0  0  0  0  0  0  0  0  0  0  0  0
   21.5781   -2.2995   -8.1188 F   0  0  0  0  0  0  0  0  0  0  0  0
   20.8518   -1.9803  -10.3280 C   0  0  0  0  0  0  0  0  0  0  0  0
   21.1330   -1.5293  -11.6102 C   0  0  0  0  0  0  0  0  0  0  0  0
   20.0837   -1.6657  -12.5786 C   0  0  0  0  0  0  0  0  0  0  0  0
   19.2327   -1.7599  -13.3556 N   0  0  0  0  0  0  0  0  0  0  0  0
   22.3567   -0.9867  -11.9075 C   0  0  0  0  0  0  0  0  0  0  0  0
  1  2  1  6
  2  3  1  6
  4  3  1  1
  5  4  1  1
  6  5  1  6
  6  7  2  0
  6  8  2  0
  6  9  1  0
  9 10  1  1
 10 11  1  6
 11 12  1  0
 12 13  2  0
 13 14  1  0
 14 15  1  0
 14 16  2  0
 16 17  1  0
 17 18  1  0
 18 19  3  0
 17 20  2  0
 10  4  1  0
 20 12  1  0
M  END
$$$$
