_rank5
     RDKit          3D

 20 21  0  0  0  0  0  0  0  0999 V2000
   26.1134    1.6757  -13.3620 C   0  0  0  0  0  0  0  0  0  0  0  0
   26.9777    1.7900  -12.1331 C   0  0  0  0  0  0  0  0  0  0  0  0
   26.5085    1.0978  -11.0499 O   0  0  0  0  0  0  0  0  0  0  0  0
   26.4282   -0.2625  -11.2234 C   0  0  1  0  0  0  0  0  0  0  0  0
   27.4523   -1.0075  -10.3508 C   0  0  0  0  0  0  0  0  0  0  0  0
   26.9122   -0.4220   -8.7335 S   0  0  1  0  0  6  0  0  0  0  0  0
   26.7579   -1.5461   -7.7752 O   0  0  0  0  0  0  0  0  0  0  0  0
   27.7726    0.6817   -8.2479 O   0  0  0  0  0  0  0  0  0  0  0  0
   25.2951    0.1979   -9.2423 C   0  0  0  0  0  0  0  0  0  0  0  0
   25.1265   -0.6858  -10.5009 C   0  0  1  0  0  0  0  0  0  0  0  0
   24.0085   -0.3633  -11.2179 O   0  0  0  0  0  0  0  0  0  0  0  0
   22.7205   -0.5127  -10.7553 C   0  0  0  0  0  0  0  0  0  0  0  0
   22.2010   -1.7141  -10.3452 C   0  0  0  0  0  0  0  0  0  0  0  0
   20.8902   -1.8084   -9.8857 C   0  0  0  0  0  0  0  0  0  0  0  0
   20.4115   -3.0173   -9.4879 F   0  0  0  0  0  0  0  0  0  0  0  0
   20.0677   -0.7195   -9.8222 C   0  0  0  0  0  0  0  0  0  0  0  0
   20.5788    0.5036  -10.2337 C   0  0  0  0  0  0  0  0  0  0  0  0
   19.6890    1.6258  -10.1541 C   0  0  0  0  0  0  0  0  0  0  0  0
   18.9852    2.5407  -10.0877 N   0  0  0  0  0  0  0  0  0  0  0  0
   21.8687    0.6050  -10.6876 C   0  0  0  0  0  0  0  0  0  0  0  0
  1  2  1  6
  2  3  1  6
  4  3  1  1
  5  4  1  1
  6  5  1  6
  6  7  2  0
  6  8  2  0
  6  9  1  0
  9 10  1  1
 10 11  1  6
 11 12  1  0
 12 13  2  0
 13 14  1  0
 14 15  1  0
 14 16  2  0
 16 17  1  0
 17 18  1  0
 18 19  3  0
 17 20  2  0
 10  4  1  0
 20 12  1  0
M  END
$$$$
