_rank12
     RDKit          3D

 20 21  0  0  0  0  0  0  0  0999 V2000
   26.6991   -0.6088  -13.5889 C   0  0  0  0  0  0  0  0  0  0  0  0
   27.5742   -0.1432  -12.4542 C   0  0  0  0  0  0  0  0  0  0  0  0
   26.8864    0.2392  -11.3347 O   0  0  0  0  0  0  0  0  0  0  0  0
   26.2349   -0.7780  -10.6806 C   0  0  1  0  0  0  0  0  0  0  0  0
   27.0245   -1.2605   -9.4521 C   0  0  0  0  0  0  0  0  0  0  0  0
   27.0951    0.2950   -8.5433 S   0  0  1  0  0  6  0  0  0  0  0  0
   26.6953    0.1111   -7.1248 O   0  0  0  0  0  0  0  0  0  0  0  0
   28.4031    0.9652   -8.7280 O   0  0  0  0  0  0  0  0  0  0  0  0
   25.7966    1.1537   -9.4570 C   0  0  0  0  0  0  0  0  0  0  0  0
   25.0433   -0.0991   -9.9633 C   0  0  1  0  0  0  0  0  0  0  0  0
   24.0309    0.2150  -10.8263 O   0  0  0  0  0  0  0  0  0  0  0  0
   22.6939    0.1758  -10.5005 C   0  0  0  0  0  0  0  0  0  0  0  0
   21.6889    0.3486  -11.4178 C   0  0  0  0  0  0  0  0  0  0  0  0
   20.3517    0.2992  -11.0334 C   0  0  0  0  0  0  0  0  0  0  0  0
   19.3840    0.4753  -11.9722 F   0  0  0  0  0  0  0  0  0  0  0  0
   19.9813    0.0785   -9.7371 C   0  0  0  0  0  0  0  0  0  0  0  0
   20.9868   -0.0983   -8.7968 C   0  0  0  0  0  0  0  0  0  0  0  0
   20.5633   -0.3278   -7.4457 C   0  0  0  0  0  0  0  0  0  0  0  0
   20.2377   -0.5092   -6.3513 N   0  0  0  0  0  0  0  0  0  0  0  0
   22.3062   -0.0511   -9.1673 C   0  0  0  0  0  0  0  0  0  0  0  0
  1  2  1  6
  2  3  1  6
  4  3  1  1
  5  4  1  1
  6  5  1  6
  6  7  2  0
  6  8  2  0
  6  9  1  0
  9 10  1  1
 10 11  1  6
 11 12  1  0
 12 13  2  0
 13 14  1  0
 14 15  1  0
 14 16  2  0
 16 17  1  0
 17 18  1  0
 18 19  3  0
 17 20  2  0
 10  4  1  0
 20 12  1  0
M  END
$$$$
