_rank2
     RDKit          3D

 20 21  0  0  0  0  0  0  0  0999 V2000
   25.9061    0.8168  -13.1791 C   0  0  0  0  0  0  0  0  0  0  0  0
   27.1099    0.4179  -12.3655 C   0  0  0  0  0  0  0  0  0  0  0  0
   26.8934    0.3982  -11.0145 O   0  0  0  0  0  0  0  0  0  0  0  0
   26.7607   -0.8553  -10.4683 C   0  0  1  0  0  0  0  0  0  0  0  0
   27.5111   -0.9742   -9.1311 C   0  0  0  0  0  0  0  0  0  0  0  0
   26.6653    0.3349   -8.2247 S   0  0  1  0  0  6  0  0  0  0  0  0
   26.2246   -0.1322   -6.8856 O   0  0  0  0  0  0  0  0  0  0  0  0
   27.4693    1.5788   -8.2044 O   0  0  0  0  0  0  0  0  0  0  0  0
   25.2487    0.5015   -9.3310 C   0  0  0  0  0  0  0  0  0  0  0  0
   25.3049   -0.9167   -9.9466 C   0  0  1  0  0  0  0  0  0  0  0  0
   24.3997   -1.0822  -10.9572 O   0  0  0  0  0  0  0  0  0  0  0  0
   23.0349   -1.1116  -10.7790 C   0  0  0  0  0  0  0  0  0  0  0  0
   22.2335   -2.1172  -11.2562 C   0  0  0  0  0  0  0  0  0  0  0  0
   20.8573   -2.0969  -11.0471 C   0  0  0  0  0  0  0  0  0  0  0  0
   20.0963   -3.1122  -11.5359 F   0  0  0  0  0  0  0  0  0  0  0  0
   20.2462   -1.0843  -10.3634 C   0  0  0  0  0  0  0  0  0  0  0  0
   21.0436   -0.0591   -9.8741 C   0  0  0  0  0  0  0  0  0  0  0  0
   20.3703    0.9878   -9.1613 C   0  0  0  0  0  0  0  0  0  0  0  0
   19.8321    1.8245   -8.5720 N   0  0  0  0  0  0  0  0  0  0  0  0
   22.3999   -0.0716  -10.0758 C   0  0  0  0  0  0  0  0  0  0  0  0
  1  2  1  6
  2  3  1  6
  4  3  1  1
  5  4  1  1
  6  5  1  6
  6  7  2  0
  6  8  2  0
  6  9  1  0
  9 10  1  1
 10 11  1  6
 11 12  1  0
 12 13  2  0
 13 14  1  0
 14 15  1  0
 14 16  2  0
 16 17  1  0
 17 18  1  0
 18 19  3  0
 17 20  2  0
 10  4  1  0
 20 12  1  0
M  END
$$$$
