_rank8
     RDKit          3D

 20 21  0  0  0  0  0  0  0  0999 V2000
   26.4988    3.7237  -11.7281 C   0  0  0  0  0  0  0  0  0  0  0  0
   26.5289    2.2497  -12.0386 C   0  0  0  0  0  0  0  0  0  0  0  0
   26.5036    1.4423  -10.9340 O   0  0  0  0  0  0  0  0  0  0  0  0
   26.6834    0.1049  -11.1911 C   0  0  1  0  0  0  0  0  0  0  0  0
   27.7124   -0.5234  -10.2363 C   0  0  0  0  0  0  0  0  0  0  0  0
   26.8920   -0.1614   -8.6722 S   0  0  1  0  0  6  0  0  0  0  0  0
   26.8253   -1.3653   -7.8052 O   0  0  0  0  0  0  0  0  0  0  0  0
   27.4831    1.0299   -8.0198 O   0  0  0  0  0  0  0  0  0  0  0  0
   25.2625    0.2173   -9.3501 C   0  0  0  0  0  0  0  0  0  0  0  0
   25.4002   -0.5834  -10.6667 C   0  0  1  0  0  0  0  0  0  0  0  0
   24.3350   -0.3980  -11.5029 O   0  0  0  0  0  0  0  0  0  0  0  0
   23.0424   -0.7670  -11.2060 C   0  0  0  0  0  0  0  0  0  0  0  0
   22.3532   -1.7268  -11.9026 C   0  0  0  0  0  0  0  0  0  0  0  0
   21.0462   -2.0614  -11.5592 C   0  0  0  0  0  0  0  0  0  0  0  0
   20.3961   -3.0182  -12.2739 F   0  0  0  0  0  0  0  0  0  0  0  0
   20.3949   -1.4555  -10.5224 C   0  0  0  0  0  0  0  0  0  0  0  0
   21.0789   -0.4820   -9.8076 C   0  0  0  0  0  0  0  0  0  0  0  0
   20.3661    0.1338   -8.7259 C   0  0  0  0  0  0  0  0  0  0  0  0
   19.7841    0.6153   -7.8506 N   0  0  0  0  0  0  0  0  0  0  0  0
   22.3665   -0.1467  -10.1394 C   0  0  0  0  0  0  0  0  0  0  0  0
  1  2  1  6
  2  3  1  6
  4  3  1  1
  5  4  1  1
  6  5  1  6
  6  7  2  0
  6  8  2  0
  6  9  1  0
  9 10  1  1
 10 11  1  6
 11 12  1  0
 12 13  2  0
 13 14  1  0
 14 15  1  0
 14 16  2  0
 16 17  1  0
 17 18  1  0
 18 19  3  0
 17 20  2  0
 10  4  1  0
 20 12  1  0
M  END
$$$$
