_rank15
     RDKit          3D

 18 19  0  0  0  0  0  0  0  0999 V2000
   23.9360   -2.0809  -13.8575 N   0  0  0  0  0  0  0  0  0  0  0  0
   23.4035   -1.7648  -12.8991 C   0  0  0  0  0  0  0  0  0  0  0  0
   22.7542   -1.3604  -11.6865 C   0  0  0  0  0  0  0  0  0  0  0  0
   21.3553   -1.2892  -11.6394 C   0  0  0  0  0  0  0  0  0  0  0  0
   20.7365   -0.9000  -10.4717 C   0  0  0  0  0  0  0  0  0  0  0  0
   19.2466   -0.8162  -10.3959 C   0  0  0  0  0  0  0  0  0  0  0  0
   18.6760   -2.1352  -10.2054 N   0  0  0  0  0  0  0  0  0  0  0  0
   21.4869   -0.5842   -9.3617 C   0  0  0  0  0  0  0  0  0  0  0  0
   22.8640   -0.6640   -9.4394 C   0  0  0  0  0  0  0  0  0  0  0  0
   23.5183   -1.0476  -10.5846 C   0  0  0  0  0  0  0  0  0  0  0  0
   24.8662   -1.1245  -10.6567 O   0  0  0  0  0  0  0  0  0  0  0  0
   25.8008   -0.6109   -9.8134 C   0  0  0  0  0  0  0  0  0  0  0  0
   25.9051    0.7232   -9.4743 C   0  0  0  0  0  0  0  0  0  0  0  0
   26.8757    1.1472   -8.6194 C   0  0  0  0  0  0  0  0  0  0  0  0
   27.8033    0.2879   -8.0450 C   0  0  0  0  0  0  0  0  0  0  0  0
   27.7039   -1.0496   -8.3808 C   0  0  0  0  0  0  0  0  0  0  0  0
   28.5930   -1.9160   -7.8385 F   0  0  0  0  0  0  0  0  0  0  0  0
   26.7200   -1.4762   -9.2468 C   0  0  0  0  0  0  0  0  0  0  0  0
  1  2  3  0
  2  3  1  0
  3  4  2  0
  4  5  1  0
  5  6  1  0
  6  7  1  1
  5  8  2  0
  8  9  1  0
  9 10  2  0
 10 11  1  0
 11 12  1  0
 12 13  2  0
 13 14  1  0
 14 15  2  0
 15 16  1  0
 16 17  1  0
 16 18  2  0
 10  3  1  0
 18 12  1  0
M  END
$$$$
