_rank11
     RDKit          3D

 18 19  0  0  0  0  0  0  0  0999 V2000
   21.2828    2.3797   -9.9058 N   0  0  0  0  0  0  0  0  0  0  0  0
   21.3614    1.2659  -10.1407 C   0  0  0  0  0  0  0  0  0  0  0  0
   21.4807   -0.1340  -10.4263 C   0  0  0  0  0  0  0  0  0  0  0  0
   20.3442   -0.8654  -10.7969 C   0  0  0  0  0  0  0  0  0  0  0  0
   20.4644   -2.2103  -11.0702 C   0  0  0  0  0  0  0  0  0  0  0  0
   19.2677   -3.0123  -11.4674 C   0  0  0  0  0  0  0  0  0  0  0  0
   18.1041   -2.1561  -11.5884 N   0  0  0  0  0  0  0  0  0  0  0  0
   21.6907   -2.8290  -10.9797 C   0  0  0  0  0  0  0  0  0  0  0  0
   22.7926   -2.0810  -10.6119 C   0  0  0  0  0  0  0  0  0  0  0  0
   22.7141   -0.7387  -10.3314 C   0  0  0  0  0  0  0  0  0  0  0  0
   23.7948   -0.0101   -9.9717 O   0  0  0  0  0  0  0  0  0  0  0  0
   25.1113   -0.3447  -10.0263 C   0  0  0  0  0  0  0  0  0  0  0  0
   25.7221   -0.9602  -11.1005 C   0  0  0  0  0  0  0  0  0  0  0  0
   27.0497   -1.2581  -11.0657 C   0  0  0  0  0  0  0  0  0  0  0  0
   27.8593   -0.9703   -9.9745 C   0  0  0  0  0  0  0  0  0  0  0  0
   27.2533   -0.3538   -8.8955 C   0  0  0  0  0  0  0  0  0  0  0  0
   28.0137   -0.0585   -7.8139 F   0  0  0  0  0  0  0  0  0  0  0  0
   25.9086   -0.0532   -8.9335 C   0  0  0  0  0  0  0  0  0  0  0  0
  1  2  3  0
  2  3  1  0
  3  4  2  0
  4  5  1  0
  5  6  1  0
  6  7  1  1
  5  8  2  0
  8  9  1  0
  9 10  2  0
 10 11  1  0
 11 12  1  0
 12 13  2  0
 13 14  1  0
 14 15  2  0
 15 16  1  0
 16 17  1  0
 16 18  2  0
 10  3  1  0
 18 12  1  0
M  END
$$$$
