_rank19
     RDKit          3D

 18 19  0  0  0  0  0  0  0  0999 V2000
   22.6693    2.9492   -9.3715 N   0  0  0  0  0  0  0  0  0  0  0  0
   22.2633    1.9362   -9.7046 C   0  0  0  0  0  0  0  0  0  0  0  0
   21.7723    0.6536  -10.1161 C   0  0  0  0  0  0  0  0  0  0  0  0
   20.3908    0.4254  -10.1726 C   0  0  0  0  0  0  0  0  0  0  0  0
   19.9244   -0.8088  -10.5688 C   0  0  0  0  0  0  0  0  0  0  0  0
   18.4560   -1.0772  -10.6373 C   0  0  0  0  0  0  0  0  0  0  0  0
   17.8767   -0.4218  -11.7933 N   0  0  0  0  0  0  0  0  0  0  0  0
   20.8088   -1.8084  -10.9058 C   0  0  0  0  0  0  0  0  0  0  0  0
   22.1650   -1.5528  -10.8400 C   0  0  0  0  0  0  0  0  0  0  0  0
   22.6694   -0.3361  -10.4501 C   0  0  0  0  0  0  0  0  0  0  0  0
   23.9974   -0.0899  -10.3870 O   0  0  0  0  0  0  0  0  0  0  0  0
   25.0311   -0.8352  -10.8604 C   0  0  0  0  0  0  0  0  0  0  0  0
   24.8918   -2.0008  -11.5869 C   0  0  0  0  0  0  0  0  0  0  0  0
   25.9873   -2.6821  -12.0209 C   0  0  0  0  0  0  0  0  0  0  0  0
   27.2866   -2.2613  -11.7685 C   0  0  0  0  0  0  0  0  0  0  0  0
   27.4325   -1.0945  -11.0413 C   0  0  0  0  0  0  0  0  0  0  0  0
   28.6863   -0.6548  -10.7768 F   0  0  0  0  0  0  0  0  0  0  0  0
   26.3214   -0.4065  -10.6031 C   0  0  0  0  0  0  0  0  0  0  0  0
  1  2  3  0
  2  3  1  0
  3  4  2  0
  4  5  1  0
  5  6  1  0
  6  7  1  1
  5  8  2  0
  8  9  1  0
  9 10  2  0
 10 11  1  0
 11 12  1  0
 12 13  2  0
 13 14  1  0
 14 15  2  0
 15 16  1  0
 16 17  1  0
 16 18  2  0
 10  3  1  0
 18 12  1  0
M  END
$$$$
