_rank10
     RDKit          3D

 18 19  0  0  0  0  0  0  0  0999 V2000
   25.6836   -0.9341   -7.6852 N   0  0  0  0  0  0  0  0  0  0  0  0
   25.5673   -0.6570   -8.7859 C   0  0  0  0  0  0  0  0  0  0  0  0
   25.3992   -0.3050  -10.1656 C   0  0  0  0  0  0  0  0  0  0  0  0
   26.4755    0.2405  -10.8782 C   0  0  0  0  0  0  0  0  0  0  0  0
   26.3085    0.5770  -12.2037 C   0  0  0  0  0  0  0  0  0  0  0  0
   27.4406    1.1601  -12.9854 C   0  0  0  0  0  0  0  0  0  0  0  0
   27.4181    2.6072  -12.9029 N   0  0  0  0  0  0  0  0  0  0  0  0
   25.0944    0.3786  -12.8214 C   0  0  0  0  0  0  0  0  0  0  0  0
   24.0523   -0.1610  -12.0922 C   0  0  0  0  0  0  0  0  0  0  0  0
   24.1788   -0.5094  -10.7695 C   0  0  0  0  0  0  0  0  0  0  0  0
   23.1565   -1.0372  -10.0593 O   0  0  0  0  0  0  0  0  0  0  0  0
   21.8180   -0.9236  -10.2689 C   0  0  0  0  0  0  0  0  0  0  0  0
   20.9589   -1.9875  -10.4581 C   0  0  0  0  0  0  0  0  0  0  0  0
   19.6297   -1.7772  -10.6615 C   0  0  0  0  0  0  0  0  0  0  0  0
   19.0621   -0.5100  -10.6918 C   0  0  0  0  0  0  0  0  0  0  0  0
   19.9175    0.5596  -10.5030 C   0  0  0  0  0  0  0  0  0  0  0  0
   19.3973    1.8103  -10.5265 F   0  0  0  0  0  0  0  0  0  0  0  0
   21.2632    0.3438  -10.2971 C   0  0  0  0  0  0  0  0  0  0  0  0
  1  2  3  0
  2  3  1  0
  3  4  2  0
  4  5  1  0
  5  6  1  0
  6  7  1  1
  5  8  2  0
  8  9  1  0
  9 10  2  0
 10 11  1  0
 11 12  1  0
 12 13  2  0
 13 14  1  0
 14 15  2  0
 15 16  1  0
 16 17  1  0
 16 18  2  0
 10  3  1  0
 18 12  1  0
M  END
$$$$
