_rank5
     RDKit          3D

 18 19  0  0  0  0  0  0  0  0999 V2000
   25.9789    0.3281  -13.5060 N   0  0  0  0  0  0  0  0  0  0  0  0
   25.8736    0.0874  -12.3956 C   0  0  0  0  0  0  0  0  0  0  0  0
   25.7460   -0.2368  -11.0049 C   0  0  0  0  0  0  0  0  0  0  0  0
   26.8880   -0.2720  -10.1934 C   0  0  0  0  0  0  0  0  0  0  0  0
   26.7597   -0.5840   -8.8577 C   0  0  0  0  0  0  0  0  0  0  0  0
   27.9620   -0.6281   -7.9715 C   0  0  0  0  0  0  0  0  0  0  0  0
   29.1749   -0.5820   -8.7640 N   0  0  0  0  0  0  0  0  0  0  0  0
   25.5199   -0.8587   -8.3262 C   0  0  0  0  0  0  0  0  0  0  0  0
   24.4130   -0.8159   -9.1517 C   0  0  0  0  0  0  0  0  0  0  0  0
   24.4992   -0.5091  -10.4878 C   0  0  0  0  0  0  0  0  0  0  0  0
   23.4135   -0.4684  -11.2925 O   0  0  0  0  0  0  0  0  0  0  0  0
   22.0967   -0.4414  -10.9553 C   0  0  0  0  0  0  0  0  0  0  0  0
   21.4611    0.6261  -10.3534 C   0  0  0  0  0  0  0  0  0  0  0  0
   20.1354    0.5629  -10.0516 C   0  0  0  0  0  0  0  0  0  0  0  0
   19.3523   -0.5518  -10.3219 C   0  0  0  0  0  0  0  0  0  0  0  0
   19.9832   -1.6242  -10.9246 C   0  0  0  0  0  0  0  0  0  0  0  0
   19.2490   -2.7283  -11.2026 F   0  0  0  0  0  0  0  0  0  0  0  0
   21.3259   -1.5575  -11.2292 C   0  0  0  0  0  0  0  0  0  0  0  0
  1  2  3  0
  2  3  1  0
  3  4  2  0
  4  5  1  0
  5  6  1  0
  6  7  1  1
  5  8  2  0
  8  9  1  0
  9 10  2  0
 10 11  1  0
 11 12  1  0
 12 13  2  0
 13 14  1  0
 14 15  2  0
 15 16  1  0
 16 17  1  0
 16 18  2  0
 10  3  1  0
 18 12  1  0
M  END
$$$$
