_rank20
     RDKit          3D

 18 19  0  0  0  0  0  0  0  0999 V2000
   23.1725   -2.5300  -11.2813 N   0  0  0  0  0  0  0  0  0  0  0  0
   22.2096   -1.9724  -11.0286 C   0  0  0  0  0  0  0  0  0  0  0  0
   20.9881   -1.2908  -10.7143 C   0  0  0  0  0  0  0  0  0  0  0  0
   21.0319    0.0252  -10.2344 C   0  0  0  0  0  0  0  0  0  0  0  0
   19.8552    0.6755   -9.9340 C   0  0  0  0  0  0  0  0  0  0  0  0
   19.8751    2.0788   -9.4210 C   0  0  0  0  0  0  0  0  0  0  0  0
   19.3840    2.9931  -10.4331 N   0  0  0  0  0  0  0  0  0  0  0  0
   18.6476    0.0370  -10.1042 C   0  0  0  0  0  0  0  0  0  0  0  0
   18.6371   -1.2604  -10.5790 C   0  0  0  0  0  0  0  0  0  0  0  0
   19.7880   -1.9427  -10.8897 C   0  0  0  0  0  0  0  0  0  0  0  0
   19.7736   -3.2124  -11.3542 O   0  0  0  0  0  0  0  0  0  0  0  0
   18.8047   -4.1585  -11.2340 C   0  0  0  0  0  0  0  0  0  0  0  0
   18.8154   -5.3806  -11.8759 C   0  0  0  0  0  0  0  0  0  0  0  0
   17.7989   -6.2675  -11.6949 C   0  0  0  0  0  0  0  0  0  0  0  0
   16.7097   -6.0094  -10.8728 C   0  0  0  0  0  0  0  0  0  0  0  0
   16.6933   -4.7870  -10.2272 C   0  0  0  0  0  0  0  0  0  0  0  0
   15.6453   -4.5022   -9.4172 F   0  0  0  0  0  0  0  0  0  0  0  0
   17.7240   -3.8907  -10.4123 C   0  0  0  0  0  0  0  0  0  0  0  0
  1  2  3  0
  2  3  1  0
  3  4  2  0
  4  5  1  0
  5  6  1  0
  6  7  1  1
  5  8  2  0
  8  9  1  0
  9 10  2  0
 10 11  1  0
 11 12  1  0
 12 13  2  0
 13 14  1  0
 14 15  2  0
 15 16  1  0
 16 17  1  0
 16 18  2  0
 10  3  1  0
 18 12  1  0
M  END
$$$$
