_rank1
     RDKit          3D

 18 19  0  0  0  0  0  0  0  0999 V2000
   25.7772    0.3559  -13.8415 N   0  0  0  0  0  0  0  0  0  0  0  0
   25.7089    0.1499  -12.7213 C   0  0  0  0  0  0  0  0  0  0  0  0
   25.6378   -0.0922  -11.3099 C   0  0  0  0  0  0  0  0  0  0  0  0
   26.8067   -0.0446  -10.5384 C   0  0  0  0  0  0  0  0  0  0  0  0
   26.7327   -0.2779   -9.1827 C   0  0  0  0  0  0  0  0  0  0  0  0
   27.9646   -0.2328   -8.3382 C   0  0  0  0  0  0  0  0  0  0  0  0
   28.1923   -1.5189   -7.7091 N   0  0  0  0  0  0  0  0  0  0  0  0
   25.5204   -0.5553   -8.5924 C   0  0  0  0  0  0  0  0  0  0  0  0
   24.3858   -0.5952   -9.3796 C   0  0  0  0  0  0  0  0  0  0  0  0
   24.4180   -0.3684  -10.7340 C   0  0  0  0  0  0  0  0  0  0  0  0
   23.3053   -0.4084  -11.5010 O   0  0  0  0  0  0  0  0  0  0  0  0
   22.0359   -0.7493  -11.1535 C   0  0  0  0  0  0  0  0  0  0  0  0
   21.4956   -2.0123  -11.2909 C   0  0  0  0  0  0  0  0  0  0  0  0
   20.2115   -2.2614  -10.9149 C   0  0  0  0  0  0  0  0  0  0  0  0
   19.3789   -1.2864  -10.3808 C   0  0  0  0  0  0  0  0  0  0  0  0
   19.9144   -0.0196  -10.2407 C   0  0  0  0  0  0  0  0  0  0  0  0
   19.1298    0.9560   -9.7230 F   0  0  0  0  0  0  0  0  0  0  0  0
   21.2152    0.2300  -10.6224 C   0  0  0  0  0  0  0  0  0  0  0  0
  1  2  3  0
  2  3  1  0
  3  4  2  0
  4  5  1  0
  5  6  1  0
  6  7  1  1
  5  8  2  0
  8  9  1  0
  9 10  2  0
 10 11  1  0
 11 12  1  0
 12 13  2  0
 13 14  1  0
 14 15  2  0
 15 16  1  0
 16 17  1  0
 16 18  2  0
 10  3  1  0
 18 12  1  0
M  END
$$$$
