_rank14
     RDKit          3D

 18 19  0  0  0  0  0  0  0  0999 V2000
   21.9380   -2.6463   -8.9154 N   0  0  0  0  0  0  0  0  0  0  0  0
   22.8129   -2.0531   -9.3453 C   0  0  0  0  0  0  0  0  0  0  0  0
   23.9214   -1.3069   -9.8648 C   0  0  0  0  0  0  0  0  0  0  0  0
   25.1528   -1.3387   -9.1966 C   0  0  0  0  0  0  0  0  0  0  0  0
   26.2147   -0.6198   -9.7001 C   0  0  0  0  0  0  0  0  0  0  0  0
   27.5380   -0.6373   -9.0062 C   0  0  0  0  0  0  0  0  0  0  0  0
   28.5984   -0.9335   -9.9493 N   0  0  0  0  0  0  0  0  0  0  0  0
   26.0661    0.1227  -10.8497 C   0  0  0  0  0  0  0  0  0  0  0  0
   24.8396    0.1339  -11.4857 C   0  0  0  0  0  0  0  0  0  0  0  0
   23.7572   -0.5690  -11.0156 C   0  0  0  0  0  0  0  0  0  0  0  0
   22.5585   -0.5554  -11.6409 O   0  0  0  0  0  0  0  0  0  0  0  0
   21.3374   -0.2187  -11.1471 C   0  0  0  0  0  0  0  0  0  0  0  0
   21.1272    0.6502  -10.0952 C   0  0  0  0  0  0  0  0  0  0  0  0
   19.8654    0.9287   -9.6677 C   0  0  0  0  0  0  0  0  0  0  0  0
   18.7324    0.3715  -10.2464 C   0  0  0  0  0  0  0  0  0  0  0  0
   18.9365   -0.4995  -11.3005 C   0  0  0  0  0  0  0  0  0  0  0  0
   17.8531   -1.0615  -11.8886 F   0  0  0  0  0  0  0  0  0  0  0  0
   20.2155   -0.7798  -11.7313 C   0  0  0  0  0  0  0  0  0  0  0  0
  1  2  3  0
  2  3  1  0
  3  4  2  0
  4  5  1  0
  5  6  1  0
  6  7  1  1
  5  8  2  0
  8  9  1  0
  9 10  2  0
 10 11  1  0
 11 12  1  0
 12 13  2  0
 13 14  1  0
 14 15  2  0
 15 16  1  0
 16 17  1  0
 16 18  2  0
 10  3  1  0
 18 12  1  0
M  END
$$$$
