_rank8
     RDKit          3D

 18 19  0  0  0  0  0  0  0  0999 V2000
   25.9550   -0.9421   -7.6580 N   0  0  0  0  0  0  0  0  0  0  0  0
   25.8214   -0.6718   -8.7585 C   0  0  0  0  0  0  0  0  0  0  0  0
   25.6502   -0.3107  -10.1353 C   0  0  0  0  0  0  0  0  0  0  0  0
   26.7728   -0.0082  -10.9177 C   0  0  0  0  0  0  0  0  0  0  0  0
   26.6026    0.3382  -12.2402 C   0  0  0  0  0  0  0  0  0  0  0  0
   27.7834    0.6652  -13.0954 C   0  0  0  0  0  0  0  0  0  0  0  0
   28.2780    1.9925  -12.7865 N   0  0  0  0  0  0  0  0  0  0  0  0
   25.3402    0.3863  -12.7870 C   0  0  0  0  0  0  0  0  0  0  0  0
   24.2532    0.0826  -11.9901 C   0  0  0  0  0  0  0  0  0  0  0  0
   24.3812   -0.2670  -10.6680 C   0  0  0  0  0  0  0  0  0  0  0  0
   23.3149   -0.5635   -9.8913 O   0  0  0  0  0  0  0  0  0  0  0  0
   22.0291   -0.8098  -10.2579 C   0  0  0  0  0  0  0  0  0  0  0  0
   21.6155   -1.9084  -10.9844 C   0  0  0  0  0  0  0  0  0  0  0  0
   20.3033   -2.0725  -11.3063 C   0  0  0  0  0  0  0  0  0  0  0  0
   19.3165   -1.1685  -10.9350 C   0  0  0  0  0  0  0  0  0  0  0  0
   19.7245   -0.0661  -10.2072 C   0  0  0  0  0  0  0  0  0  0  0  0
   18.7878    0.8363   -9.8283 F   0  0  0  0  0  0  0  0  0  0  0  0
   21.0541    0.0976   -9.8825 C   0  0  0  0  0  0  0  0  0  0  0  0
  1  2  3  0
  2  3  1  0
  3  4  2  0
  4  5  1  0
  5  6  1  0
  6  7  1  1
  5  8  2  0
  8  9  1  0
  9 10  2  0
 10 11  1  0
 11 12  1  0
 12 13  2  0
 13 14  1  0
 14 15  2  0
 15 16  1  0
 16 17  1  0
 16 18  2  0
 10  3  1  0
 18 12  1  0
M  END
$$$$
