_rank18
     RDKit          3D

 26 28  0  0  0  0  0  0  0  0999 V2000
   28.9831    0.1536   -8.2624 C   0  0  0  0  0  0  0  0  0  0  0  0
   28.0063   -1.1898   -8.8722 S   0  0  2  0  0  6  0  0  0  0  0  0
   27.6325   -2.0278   -7.6538 O   0  0  0  0  0  0  0  0  0  0  0  0
   28.7377   -2.0220   -9.8780 O   0  0  0  0  0  0  0  0  0  0  0  0
   26.5043   -0.5574   -9.5048 C   0  0  0  0  0  0  0  0  0  0  0  0
   25.3539   -0.6967   -8.7652 C   0  0  0  0  0  0  0  0  0  0  0  0
   24.1506   -0.1997   -9.2742 C   0  0  0  0  0  0  0  0  0  0  0  0
   24.1320    0.4155  -10.4930 C   0  0  0  0  0  0  0  0  0  0  0  0
   22.9112    0.9002  -10.9658 O   0  0  0  0  0  0  0  0  0  0  0  0
   21.6950    0.2748  -10.7659 C   0  0  0  0  0  0  0  0  0  0  0  0
   21.5866   -1.0920  -10.7430 C   0  0  0  0  0  0  0  0  0  0  0  0
   20.4247   -1.8000  -10.5537 C   0  0  0  0  0  0  0  0  0  0  0  0
   20.3748   -3.1548  -10.5419 F   0  0  0  0  0  0  0  0  0  0  0  0
   19.2577   -1.0921  -10.3694 C   0  0  0  0  0  0  0  0  0  0  0  0
   19.3000    0.3037  -10.3820 C   0  0  0  0  0  0  0  0  0  0  0  0
   18.0976    0.9863  -10.1915 C   0  0  0  0  0  0  0  0  0  0  0  0
   17.0360    1.5946  -10.0293 N   0  0  0  0  0  0  0  0  0  0  0  0
   20.5210    0.9721  -10.5809 C   0  0  0  0  0  0  0  0  0  0  0  0
   25.2577    0.5628  -11.2325 C   0  0  0  0  0  0  0  0  0  0  0  0
   26.4739    0.0737  -10.7463 C   0  0  0  0  0  0  0  0  0  0  0  0
   27.5680    0.3380  -11.7046 C   0  0  2  0  0  0  0  0  0  0  0  0
   28.0270    1.6388  -11.4827 O   0  0  0  0  0  0  0  0  0  0  0  0
   26.7720    0.3823  -13.0105 C   0  0  1  0  0  0  0  0  0  0  0  0
   27.4727    1.0376  -14.0125 F   0  0  0  0  0  0  0  0  0  0  0  0
   26.3488   -0.8683  -13.3610 F   0  0  0  0  0  0  0  0  0  0  0  0
   25.5817    1.1950  -12.5618 C   0  0  0  0  0  0  0  0  0  0  0  0
  1  2  1  1
  2  3  2  0
  2  4  2  0
  2  5  1  6
  5  6  2  0
  6  7  1  0
  7  8  2  0
  8  9  1  0
  9 10  1  0
 10 11  2  0
 11 12  1  0
 12 13  1  0
 12 14  2  0
 14 15  1  0
 15 16  1  0
 16 17  3  0
 15 18  2  0
  8 19  1  0
 19 20  2  0
 20 21  1  0
 21 22  1  1
 21 23  1  0
 23 24  1  6
 23 25  1  0
 23 26  1  0
 20  5  1  0
 18 10  1  0
 26 19  1  6
M  END
$$$$
