_rank16
     RDKit          3D

 26 28  0  0  0  0  0  0  0  0999 V2000
   28.6964   -1.2971   -8.8587 C   0  0  0  0  0  0  0  0  0  0  0  0
   27.4341   -0.2815   -8.1473 S   0  0  2  0  0  6  0  0  0  0  0  0
   27.9348    1.1550   -8.2584 O   0  0  0  0  0  0  0  0  0  0  0  0
   27.1521   -0.6307   -6.7199 O   0  0  0  0  0  0  0  0  0  0  0  0
   26.0021   -0.3741   -9.1456 C   0  0  0  0  0  0  0  0  0  0  0  0
   24.8394   -0.8703   -8.6055 C   0  0  0  0  0  0  0  0  0  0  0  0
   23.6960   -0.9536   -9.4054 C   0  0  0  0  0  0  0  0  0  0  0  0
   23.7469   -0.5430  -10.7066 C   0  0  0  0  0  0  0  0  0  0  0  0
   22.5836   -0.6403  -11.4723 O   0  0  0  0  0  0  0  0  0  0  0  0
   21.3108   -0.7478  -10.9446 C   0  0  0  0  0  0  0  0  0  0  0  0
   20.7231    0.2925  -10.2717 C   0  0  0  0  0  0  0  0  0  0  0  0
   19.4682    0.2777   -9.7131 C   0  0  0  0  0  0  0  0  0  0  0  0
   18.9360    1.3373   -9.0556 F   0  0  0  0  0  0  0  0  0  0  0  0
   18.7211   -0.8734   -9.8293 C   0  0  0  0  0  0  0  0  0  0  0  0
   19.2625   -1.9701  -10.5035 C   0  0  0  0  0  0  0  0  0  0  0  0
   18.4756   -3.1187  -10.6012 C   0  0  0  0  0  0  0  0  0  0  0  0
   17.7731   -4.1299  -10.6871 N   0  0  0  0  0  0  0  0  0  0  0  0
   20.5540   -1.8941  -11.0541 C   0  0  0  0  0  0  0  0  0  0  0  0
   24.8845   -0.0493  -11.2526 C   0  0  0  0  0  0  0  0  0  0  0  0
   26.0419    0.0436  -10.4740 C   0  0  0  0  0  0  0  0  0  0  0  0
   27.1608    0.6057  -11.2597 C   0  0  2  0  0  0  0  0  0  0  0  0
   27.0516    1.9981  -11.2252 O   0  0  0  0  0  0  0  0  0  0  0  0
   26.7380    0.1783  -12.6667 C   0  0  1  0  0  0  0  0  0  0  0  0
   27.3712    0.9356  -13.6413 F   0  0  0  0  0  0  0  0  0  0  0  0
   26.8919   -1.1693  -12.8290 F   0  0  0  0  0  0  0  0  0  0  0  0
   25.2643    0.4994  -12.6040 C   0  0  0  0  0  0  0  0  0  0  0  0
  1  2  1  1
  2  3  2  0
  2  4  2  0
  2  5  1  6
  5  6  2  0
  6  7  1  0
  7  8  2  0
  8  9  1  0
  9 10  1  0
 10 11  2  0
 11 12  1  0
 12 13  1  0
 12 14  2  0
 14 15  1  0
 15 16  1  0
 16 17  3  0
 15 18  2  0
  8 19  1  0
 19 20  2  0
 20 21  1  0
 21 22  1  6
 21 23  1  0
 23 24  1  6
 23 25  1  0
 23 26  1  0
 20  5  1  0
 18 10  1  0
 26 19  1  6
M  END
$$$$
