_rank17
     RDKit          3D

 26 28  0  0  0  0  0  0  0  0999 V2000
   28.3860    0.7904   -8.8951 C   0  0  0  0  0  0  0  0  0  0  0  0
   27.4544   -0.6870   -8.6115 S   0  0  2  0  0  6  0  0  0  0  0  0
   26.9714   -0.6114   -7.1667 O   0  0  0  0  0  0  0  0  0  0  0  0
   28.2627   -1.9270   -8.8311 O   0  0  0  0  0  0  0  0  0  0  0  0
   26.0169   -0.6506   -9.6056 C   0  0  0  0  0  0  0  0  0  0  0  0
   24.8688   -1.2511   -9.1463 C   0  0  0  0  0  0  0  0  0  0  0  0
   23.7213   -1.2308   -9.9443 C   0  0  0  0  0  0  0  0  0  0  0  0
   23.7538   -0.6177  -11.1639 C   0  0  0  0  0  0  0  0  0  0  0  0
   22.5870   -0.6170  -11.9303 O   0  0  0  0  0  0  0  0  0  0  0  0
   21.3128   -0.7389  -11.4089 C   0  0  0  0  0  0  0  0  0  0  0  0
   20.3002    0.1059  -11.7848 C   0  0  0  0  0  0  0  0  0  0  0  0
   19.0079    0.0630  -11.3210 C   0  0  0  0  0  0  0  0  0  0  0  0
   18.0447    0.9266  -11.7268 F   0  0  0  0  0  0  0  0  0  0  0  0
   18.6830   -0.9061  -10.3979 C   0  0  0  0  0  0  0  0  0  0  0  0
   19.6697   -1.7986   -9.9732 C   0  0  0  0  0  0  0  0  0  0  0  0
   19.3026   -2.7669   -9.0373 C   0  0  0  0  0  0  0  0  0  0  0  0
   18.9723   -3.6183   -8.2072 N   0  0  0  0  0  0  0  0  0  0  0  0
   20.9759   -1.7039  -10.4847 C   0  0  0  0  0  0  0  0  0  0  0  0
   24.8768   -0.0192  -11.6293 C   0  0  0  0  0  0  0  0  0  0  0  0
   26.0380   -0.0264  -10.8508 C   0  0  0  0  0  0  0  0  0  0  0  0
   27.1391    0.6773  -11.5420 C   0  0  2  0  0  0  0  0  0  0  0  0
   27.0016    2.0439  -11.2860 O   0  0  0  0  0  0  0  0  0  0  0  0
   26.7144    0.4699  -12.9972 C   0  0  1  0  0  0  0  0  0  0  0  0
   27.3244    1.3859  -13.8416 F   0  0  0  0  0  0  0  0  0  0  0  0
   26.8947   -0.8311  -13.3723 F   0  0  0  0  0  0  0  0  0  0  0  0
   25.2350    0.7453  -12.8778 C   0  0  0  0  0  0  0  0  0  0  0  0
  1  2  1  1
  2  3  2  0
  2  4  2  0
  2  5  1  6
  5  6  2  0
  6  7  1  0
  7  8  2  0
  8  9  1  0
  9 10  1  0
 10 11  2  0
 11 12  1  0
 12 13  1  0
 12 14  2  0
 14 15  1  0
 15 16  1  0
 16 17  3  0
 15 18  2  0
  8 19  1  0
 19 20  2  0
 20 21  1  0
 21 22  1  1
 21 23  1  0
 23 24  1  6
 23 25  1  0
 23 26  1  0
 20  5  1  0
 18 10  1  0
 26 19  1  6
M  END
$$$$
