_rank6
     RDKit          3D

 26 28  0  0  0  0  0  0  0  0999 V2000
   28.8923   -1.4809   -9.1552 C   0  0  0  0  0  0  0  0  0  0  0  0
   27.7259   -0.3789   -8.4096 S   0  0  2  0  0  6  0  0  0  0  0  0
   28.3322    1.0163   -8.5199 O   0  0  0  0  0  0  0  0  0  0  0  0
   27.4472   -0.7191   -6.9792 O   0  0  0  0  0  0  0  0  0  0  0  0
   26.2709   -0.3531   -9.3782 C   0  0  0  0  0  0  0  0  0  0  0  0
   25.0995   -0.8318   -8.8411 C   0  0  0  0  0  0  0  0  0  0  0  0
   23.9373   -0.8203   -9.6179 C   0  0  0  0  0  0  0  0  0  0  0  0
   23.9788   -0.3360  -10.8938 C   0  0  0  0  0  0  0  0  0  0  0  0
   22.7969   -0.3396  -11.6368 O   0  0  0  0  0  0  0  0  0  0  0  0
   21.5402   -0.5455  -11.0998 C   0  0  0  0  0  0  0  0  0  0  0  0
   20.9264   -1.7702  -11.1601 C   0  0  0  0  0  0  0  0  0  0  0  0
   19.6829   -2.0682  -10.6583 C   0  0  0  0  0  0  0  0  0  0  0  0
   19.1221   -3.2994  -10.7474 F   0  0  0  0  0  0  0  0  0  0  0  0
   18.9769   -1.0618  -10.0372 C   0  0  0  0  0  0  0  0  0  0  0  0
   19.5465    0.2098   -9.9427 C   0  0  0  0  0  0  0  0  0  0  0  0
   18.8013    1.2037   -9.3063 C   0  0  0  0  0  0  0  0  0  0  0  0
   18.1393    2.0770   -8.7386 N   0  0  0  0  0  0  0  0  0  0  0  0
   20.8242    0.4534  -10.4767 C   0  0  0  0  0  0  0  0  0  0  0  0
   25.1249    0.1416  -11.4363 C   0  0  0  0  0  0  0  0  0  0  0  0
   26.3011    0.1404  -10.6806 C   0  0  0  0  0  0  0  0  0  0  0  0
   27.4265    0.7011  -11.4579 C   0  0  2  0  0  0  0  0  0  0  0  0
   27.3776    2.0924  -11.3400 O   0  0  0  0  0  0  0  0  0  0  0  0
   26.9569    0.3755  -12.8772 C   0  0  1  0  0  0  0  0  0  0  0  0
   27.6016    1.1622  -13.8204 F   0  0  0  0  0  0  0  0  0  0  0  0
   27.0498   -0.9654  -13.1211 F   0  0  0  0  0  0  0  0  0  0  0  0
   25.4999    0.7531  -12.7619 C   0  0  0  0  0  0  0  0  0  0  0  0
  1  2  1  1
  2  3  2  0
  2  4  2  0
  2  5  1  6
  5  6  2  0
  6  7  1  0
  7  8  2  0
  8  9  1  0
  9 10  1  0
 10 11  2  0
 11 12  1  0
 12 13  1  0
 12 14  2  0
 14 15  1  0
 15 16  1  0
 16 17  3  0
 15 18  2  0
  8 19  1  0
 19 20  2  0
 20 21  1  0
 21 22  1  6
 21 23  1  0
 23 24  1  6
 23 25  1  0
 23 26  1  0
 20  5  1  0
 18 10  1  0
 26 19  1  6
M  END
$$$$
