_rank8
     RDKit          3D

 26 28  0  0  0  0  0  0  0  0999 V2000
   27.1940    0.0467   -7.0762 C   0  0  0  0  0  0  0  0  0  0  0  0
   27.5754    0.0105   -8.8036 S   0  0  2  0  0  6  0  0  0  0  0  0
   28.2535   -1.3317   -9.0588 O   0  0  0  0  0  0  0  0  0  0  0  0
   28.4680    1.1375   -9.2187 O   0  0  0  0  0  0  0  0  0  0  0  0
   26.0829   -0.0197   -9.7133 C   0  0  0  0  0  0  0  0  0  0  0  0
   24.9374   -0.4777   -9.1069 C   0  0  0  0  0  0  0  0  0  0  0  0
   23.7452   -0.5111   -9.8362 C   0  0  0  0  0  0  0  0  0  0  0  0
   23.7324   -0.0903  -11.1350 C   0  0  0  0  0  0  0  0  0  0  0  0
   22.5221   -0.1372  -11.8290 O   0  0  0  0  0  0  0  0  0  0  0  0
   21.2872   -0.3022  -11.2306 C   0  0  0  0  0  0  0  0  0  0  0  0
   20.6779    0.7202  -10.5497 C   0  0  0  0  0  0  0  0  0  0  0  0
   19.4573    0.6495   -9.9234 C   0  0  0  0  0  0  0  0  0  0  0  0
   18.9013    1.6939   -9.2612 F   0  0  0  0  0  0  0  0  0  0  0  0
   18.7718   -0.5440   -9.9735 C   0  0  0  0  0  0  0  0  0  0  0  0
   19.3382   -1.6253  -10.6520 C   0  0  0  0  0  0  0  0  0  0  0  0
   18.6138   -2.8180  -10.6815 C   0  0  0  0  0  0  0  0  0  0  0  0
   17.9790   -3.8760  -10.7122 N   0  0  0  0  0  0  0  0  0  0  0  0
   20.5922   -1.4913  -11.2736 C   0  0  0  0  0  0  0  0  0  0  0  0
   24.8525    0.3663  -11.7458 C   0  0  0  0  0  0  0  0  0  0  0  0
   26.0577    0.4089  -11.0386 C   0  0  0  0  0  0  0  0  0  0  0  0
   27.1471    0.9368  -11.8870 C   0  0  2  0  0  0  0  0  0  0  0  0
   27.0924    2.3320  -11.8357 O   0  0  0  0  0  0  0  0  0  0  0  0
   26.6240    0.5388  -13.2686 C   0  0  1  0  0  0  0  0  0  0  0  0
   27.2248    1.2815  -14.2744 F   0  0  0  0  0  0  0  0  0  0  0  0
   26.7173   -0.8119  -13.4498 F   0  0  0  0  0  0  0  0  0  0  0  0
   25.1699    0.9135  -13.1138 C   0  0  0  0  0  0  0  0  0  0  0  0
  1  2  1  1
  2  3  2  0
  2  4  2  0
  2  5  1  6
  5  6  2  0
  6  7  1  0
  7  8  2  0
  8  9  1  0
  9 10  1  0
 10 11  2  0
 11 12  1  0
 12 13  1  0
 12 14  2  0
 14 15  1  0
 15 16  1  0
 16 17  3  0
 15 18  2  0
  8 19  1  0
 19 20  2  0
 20 21  1  0
 21 22  1  6
 21 23  1  0
 23 24  1  6
 23 25  1  0
 23 26  1  0
 20  5  1  0
 18 10  1  0
 26 19  1  6
M  END
$$$$
