_rank9
     RDKit          3D

 23 25  0  0  0  0  0  0  0  0999 V2000
   18.5710  -42.0981   12.1903 C   0  0  0  0  0  0  0  0  0  0  0  0
   18.4481  -41.3479   10.8870 C   0  0  0  0  0  0  0  0  0  0  0  0
   17.1484  -41.4232   10.2978 N   0  0  0  0  0  0  0  0  0  0  0  0
   17.0481  -41.8670    8.9237 C   0  0  0  0  0  0  0  0  0  0  0  0
   16.9117  -43.3648    8.8176 C   0  0  0  0  0  0  0  0  0  0  0  0
   15.9430  -41.0916   10.9708 C   0  0  0  0  0  0  0  0  0  0  0  0
   15.9303  -40.3466   11.9662 O   0  0  0  0  0  0  0  0  0  0  0  0
   14.6656  -41.5978   10.5413 N   0  0  0  0  0  0  0  0  0  0  0  0
   13.4434  -41.4340   11.2721 C   0  0  2  0  0  0  0  0  0  0  0  0
   13.5647  -41.7981   12.7330 C   0  0  0  0  0  0  0  0  0  0  0  0
   12.1515  -42.1365   13.1219 C   0  0  0  0  0  0  0  0  0  0  0  0
   11.5143  -42.4490   11.9516 N   0  0  0  0  0  0  0  0  0  0  0  0
   10.4038  -43.2598   11.8696 C   0  0  0  0  0  0  0  0  0  0  0  0
    9.3951  -42.6695   10.9255 C   0  0  0  0  0  0  0  0  0  0  0  0
    9.9920  -41.7067    9.9706 C   0  0  0  0  0  0  0  0  0  0  0  0
    9.0800  -41.0495    9.1420 C   0  0  0  0  0  0  0  0  0  0  0  0
    7.6201  -41.2889    9.2106 C   0  0  0  0  0  0  0  0  0  0  0  0
    9.5339  -40.1381    8.2181 C   0  0  0  0  0  0  0  0  0  0  0  0
   10.8661  -39.8961    8.1313 C   0  0  0  0  0  0  0  0  0  0  0  0
   11.7620  -40.5453    8.9493 C   0  0  0  0  0  0  0  0  0  0  0  0
   11.3531  -41.4488    9.8708 C   0  0  0  0  0  0  0  0  0  0  0  0
   12.2756  -42.1858   10.7878 C   0  0  1  0  0  0  0  0  0  0  0  0
   12.5906  -43.4939   10.1122 C   0  0  0  0  0  0  0  0  0  0  0  0
  1  2  1  6
  2  3  1  1
  4  3  1  1
  5  4  1  6
  3  6  1  0
  6  7  2  0
  6  8  1  0
  9  8  1  6
  9 10  1  0
 10 11  1  6
 11 12  1  1
 13 12  1  1
 13 14  1  0
 14 15  1  6
 15 16  2  0
 17 16  1  1
 16 18  1  0
 18 19  2  0
 19 20  1  0
 20 21  2  0
 22 21  1  6
 23 22  1  6
 22  9  1  0
 22 12  1  0
 21 15  1  0
M  END
$$$$
