_rank11
     RDKit          3D

 23 25  0  0  0  0  0  0  0  0999 V2000
   12.8410  -40.6015   25.5833 C   0  0  0  0  0  0  0  0  0  0  0  0
   14.2665  -40.6456   26.0759 C   0  0  0  0  0  0  0  0  0  0  0  0
   14.3847  -40.8673   27.4825 N   0  0  0  0  0  0  0  0  0  0  0  0
   14.1370  -39.7518   28.3712 C   0  0  0  0  0  0  0  0  0  0  0  0
   13.0755  -40.0645   29.3953 C   0  0  0  0  0  0  0  0  0  0  0  0
   14.7294  -42.1124   28.0715 C   0  0  0  0  0  0  0  0  0  0  0  0
   15.4220  -42.1820   29.1017 O   0  0  0  0  0  0  0  0  0  0  0  0
   14.2980  -43.3665   27.5115 N   0  0  0  0  0  0  0  0  0  0  0  0
   15.1153  -44.5415   27.4340 C   0  0  2  0  0  0  0  0  0  0  0  0
   16.0652  -44.5351   26.2597 C   0  0  0  0  0  0  0  0  0  0  0  0
   16.3352  -45.9965   26.0273 C   0  0  0  0  0  0  0  0  0  0  0  0
   15.2807  -46.6588   26.5954 N   0  0  0  0  0  0  0  0  0  0  0  0
   14.8630  -47.9153   26.2160 C   0  0  0  0  0  0  0  0  0  0  0  0
   14.5579  -48.7516   27.4263 C   0  0  0  0  0  0  0  0  0  0  0  0
   14.2860  -47.9399   28.6356 C   0  0  0  0  0  0  0  0  0  0  0  0
   14.1024  -48.6700   29.8118 C   0  0  0  0  0  0  0  0  0  0  0  0
   14.1774  -50.1485   29.8555 C   0  0  0  0  0  0  0  0  0  0  0  0
   13.8410  -48.0098   30.9890 C   0  0  0  0  0  0  0  0  0  0  0  0
   13.7669  -46.6551   30.9819 C   0  0  0  0  0  0  0  0  0  0  0  0
   13.9483  -45.9387   29.8212 C   0  0  0  0  0  0  0  0  0  0  0  0
   14.2074  -46.5533   28.6431 C   0  0  0  0  0  0  0  0  0  0  0  0
   14.4145  -45.8320   27.3501 C   0  0  1  0  0  0  0  0  0  0  0  0
   13.0731  -45.7898   26.6676 C   0  0  0  0  0  0  0  0  0  0  0  0
  1  2  1  6
  2  3  1  1
  4  3  1  1
  5  4  1  6
  3  6  1  0
  6  7  2  0
  6  8  1  0
  9  8  1  6
  9 10  1  0
 10 11  1  6
 11 12  1  1
 13 12  1  1
 13 14  1  0
 14 15  1  6
 15 16  2  0
 17 16  1  1
 16 18  1  0
 18 19  2  0
 19 20  1  0
 20 21  2  0
 22 21  1  1
 23 22  1  6
 22  9  1  0
 22 12  1  0
 21 15  1  0
M  END
$$$$
