_rank15
     RDKit          3D

 23 25  0  0  0  0  0  0  0  0999 V2000
   18.2567  -40.0644   12.2607 C   0  0  0  0  0  0  0  0  0  0  0  0
   18.3216  -41.1861   11.2537 C   0  0  0  0  0  0  0  0  0  0  0  0
   17.5217  -42.3188   11.5987 N   0  0  0  0  0  0  0  0  0  0  0  0
   18.1904  -43.4906   12.1233 C   0  0  0  0  0  0  0  0  0  0  0  0
   19.6901  -43.3354   12.1295 C   0  0  0  0  0  0  0  0  0  0  0  0
   16.1095  -42.3740   11.4625 C   0  0  0  0  0  0  0  0  0  0  0  0
   15.4142  -43.1485   12.1426 O   0  0  0  0  0  0  0  0  0  0  0  0
   15.3999  -41.5377   10.5300 N   0  0  0  0  0  0  0  0  0  0  0  0
   14.3776  -42.0047    9.6404 C   0  0  2  0  0  0  0  0  0  0  0  0
   14.8874  -42.3211    8.2542 C   0  0  0  0  0  0  0  0  0  0  0  0
   13.6589  -42.1863    7.3966 C   0  0  0  0  0  0  0  0  0  0  0  0
   12.8020  -41.3895    8.1067 N   0  0  0  0  0  0  0  0  0  0  0  0
   11.8087  -40.6238    7.5372 C   0  0  0  0  0  0  0  0  0  0  0  0
   10.5405  -40.7366    8.3348 C   0  0  0  0  0  0  0  0  0  0  0  0
   10.7726  -41.1816    9.7288 C   0  0  0  0  0  0  0  0  0  0  0  0
    9.6174  -41.4057   10.4808 C   0  0  0  0  0  0  0  0  0  0  0  0
    8.2555  -41.2187    9.9297 C   0  0  0  0  0  0  0  0  0  0  0  0
    9.7252  -41.8179   11.7879 C   0  0  0  0  0  0  0  0  0  0  0  0
   10.9594  -41.9991   12.3216 C   0  0  0  0  0  0  0  0  0  0  0  0
   12.0957  -41.7775   11.5780 C   0  0  0  0  0  0  0  0  0  0  0  0
   12.0297  -41.3713   10.2882 C   0  0  0  0  0  0  0  0  0  0  0  0
   13.2258  -41.1146    9.4288 C   0  0  1  0  0  0  0  0  0  0  0  0
   13.5232  -39.6432    9.5432 C   0  0  0  0  0  0  0  0  0  0  0  0
  1  2  1  6
  2  3  1  1
  4  3  1  1
  5  4  1  6
  3  6  1  0
  6  7  2  0
  6  8  1  0
  9  8  1  1
  9 10  1  0
 10 11  1  6
 11 12  1  1
 13 12  1  1
 13 14  1  0
 14 15  1  6
 15 16  2  0
 17 16  1  1
 16 18  1  0
 18 19  2  0
 19 20  1  0
 20 21  2  0
 22 21  1  1
 23 22  1  6
 22  9  1  0
 22 12  1  0
 21 15  1  0
M  END
$$$$
