_rank19
     RDKit          3D

 23 25  0  0  0  0  0  0  0  0999 V2000
    4.4902  -60.6607   17.8773 C   0  0  0  0  0  0  0  0  0  0  0  0
    4.5001  -61.7583   18.9429 C   0  0  0  0  0  0  0  0  0  0  0  0
    5.6542  -62.5969   18.8482 N   0  0  0  0  0  0  0  0  0  0  0  0
    5.8948  -63.3272   17.6345 C   0  0  0  0  0  0  0  0  0  0  0  0
    6.5612  -62.5122   16.5702 C   0  0  0  0  0  0  0  0  0  0  0  0
    6.5500  -62.7069   19.9378 C   0  0  0  0  0  0  0  0  0  0  0  0
    7.5173  -63.5064   19.8434 O   0  0  0  0  0  0  0  0  0  0  0  0
    6.4066  -61.9523   21.1408 N   0  0  0  0  0  0  0  0  0  0  0  0
    6.7608  -62.5018   22.4518 C   0  0  2  0  0  0  0  0  0  0  0  0
    5.4830  -62.9467   23.1749 C   0  0  0  0  0  0  0  0  0  0  0  0
    5.5076  -62.2909   24.5164 C   0  0  0  0  0  0  0  0  0  0  0  0
    6.6125  -61.3964   24.5387 N   0  0  0  0  0  0  0  0  0  0  0  0
    7.2456  -61.3635   25.8005 C   0  0  0  0  0  0  0  0  0  0  0  0
    8.5024  -60.4813   25.7624 C   0  0  0  0  0  0  0  0  0  0  0  0
    9.3667  -61.1728   24.7708 C   0  0  0  0  0  0  0  0  0  0  0  0
   10.7411  -61.3142   25.0248 C   0  0  0  0  0  0  0  0  0  0  0  0
   11.3543  -60.7936   26.2466 C   0  0  0  0  0  0  0  0  0  0  0  0
   11.5212  -61.9614   24.0919 C   0  0  0  0  0  0  0  0  0  0  0  0
   10.9521  -62.4621   22.9242 C   0  0  0  0  0  0  0  0  0  0  0  0
    9.6151  -62.3258   22.6743 C   0  0  0  0  0  0  0  0  0  0  0  0
    8.8040  -61.6660   23.6198 C   0  0  0  0  0  0  0  0  0  0  0  0
    7.3874  -61.5023   23.3699 C   0  0  1  0  0  0  0  0  0  0  0  0
    7.2463  -60.1449   22.6416 C   0  0  0  0  0  0  0  0  0  0  0  0
  1  2  1  6
  2  3  1  1
  4  3  1  1
  5  4  1  6
  3  6  1  0
  6  7  2  0
  6  8  1  0
  9  8  1  6
  9 10  1  0
 10 11  1  6
 11 12  1  1
 13 12  1  1
 13 14  1  0
 14 15  1  6
 15 16  2  0
 17 16  1  1
 16 18  1  0
 18 19  2  0
 19 20  1  0
 20 21  2  0
 22 21  1  1
 23 22  1  6
 22  9  1  0
 22 12  1  0
 21 15  1  0
M  END
$$$$
