_rank4
     RDKit          3D

 23 25  0  0  0  0  0  0  0  0999 V2000
   16.9065  -43.7471   11.0985 C   0  0  0  0  0  0  0  0  0  0  0  0
   17.1304  -42.8223    9.9276 C   0  0  0  0  0  0  0  0  0  0  0  0
   16.8670  -41.4483   10.2184 N   0  0  0  0  0  0  0  0  0  0  0  0
   17.8533  -40.4664    9.8203 C   0  0  0  0  0  0  0  0  0  0  0  0
   17.4367  -39.7097    8.5845 C   0  0  0  0  0  0  0  0  0  0  0  0
   15.6985  -40.9775   10.8734 C   0  0  0  0  0  0  0  0  0  0  0  0
   15.6700  -39.8798   11.4567 O   0  0  0  0  0  0  0  0  0  0  0  0
   14.4791  -41.7422   10.9011 N   0  0  0  0  0  0  0  0  0  0  0  0
   13.2466  -41.2791   11.4678 C   0  0  2  0  0  0  0  0  0  0  0  0
   13.2426  -41.2816   12.9782 C   0  0  0  0  0  0  0  0  0  0  0  0
   11.7798  -41.3673   13.3184 C   0  0  0  0  0  0  0  0  0  0  0  0
   11.1756  -41.8924   12.2081 N   0  0  0  0  0  0  0  0  0  0  0  0
    9.9826  -42.5805   12.2308 C   0  0  0  0  0  0  0  0  0  0  0  0
    9.1053  -42.1417   11.0928 C   0  0  0  0  0  0  0  0  0  0  0  0
    9.8646  -41.5106    9.9881 C   0  0  0  0  0  0  0  0  0  0  0  0
    9.0848  -40.9887    8.9539 C   0  0  0  0  0  0  0  0  0  0  0  0
    7.6052  -41.0534    8.9567 C   0  0  0  0  0  0  0  0  0  0  0  0
    9.6945  -40.3849    7.8797 C   0  0  0  0  0  0  0  0  0  0  0  0
   11.0488  -40.3092    7.8481 C   0  0  0  0  0  0  0  0  0  0  0  0
   11.8143  -40.8244    8.8688 C   0  0  0  0  0  0  0  0  0  0  0  0
   11.2502  -41.4258    9.9426 C   0  0  0  0  0  0  0  0  0  0  0  0
   12.0261  -42.0038   11.0823 C   0  0  1  0  0  0  0  0  0  0  0  0
   12.2197  -43.4634   10.7675 C   0  0  0  0  0  0  0  0  0  0  0  0
  1  2  1  6
  2  3  1  1
  4  3  1  1
  5  4  1  6
  3  6  1  0
  6  7  2  0
  6  8  1  0
  9  8  1  6
  9 10  1  0
 10 11  1  6
 11 12  1  1
 13 12  1  1
 13 14  1  0
 14 15  1  6
 15 16  2  0
 17 16  1  1
 16 18  1  0
 18 19  2  0
 19 20  1  0
 20 21  2  0
 22 21  1  6
 23 22  1  6
 22  9  1  0
 22 12  1  0
 21 15  1  0
M  END
$$$$
