_rank2
     RDKit          3D

 23 25  0  0  0  0  0  0  0  0999 V2000
   17.6917  -43.5630    9.9586 C   0  0  0  0  0  0  0  0  0  0  0  0
   16.3185  -43.1042   10.3832 C   0  0  0  0  0  0  0  0  0  0  0  0
   16.2844  -41.7633   10.8758 N   0  0  0  0  0  0  0  0  0  0  0  0
   17.3826  -40.8840   10.5346 C   0  0  0  0  0  0  0  0  0  0  0  0
   17.3183  -40.4229    9.1006 C   0  0  0  0  0  0  0  0  0  0  0  0
   15.2423  -41.2312   11.6801 C   0  0  0  0  0  0  0  0  0  0  0  0
   15.3193  -40.1001   12.1905 O   0  0  0  0  0  0  0  0  0  0  0  0
   14.0363  -41.9689   11.9520 N   0  0  0  0  0  0  0  0  0  0  0  0
   12.7559  -41.3682   12.1849 C   0  0  2  0  0  0  0  0  0  0  0  0
   12.4766  -41.0982   13.6446 C   0  0  0  0  0  0  0  0  0  0  0  0
   10.9739  -41.0698   13.7080 C   0  0  0  0  0  0  0  0  0  0  0  0
   10.5476  -41.7649   12.6087 N   0  0  0  0  0  0  0  0  0  0  0  0
    9.3262  -42.3953   12.5194 C   0  0  0  0  0  0  0  0  0  0  0  0
    8.7030  -42.1384   11.1767 C   0  0  0  0  0  0  0  0  0  0  0  0
    9.6923  -41.7439   10.1467 C   0  0  0  0  0  0  0  0  0  0  0  0
    9.1515  -41.3899    8.9088 C   0  0  0  0  0  0  0  0  0  0  0  0
    7.6953  -41.4010    8.6394 C   0  0  0  0  0  0  0  0  0  0  0  0
    9.9866  -41.0114    7.8843 C   0  0  0  0  0  0  0  0  0  0  0  0
   11.3259  -40.9902    8.1002 C   0  0  0  0  0  0  0  0  0  0  0  0
   11.8556  -41.3395    9.3211 C   0  0  0  0  0  0  0  0  0  0  0  0
   11.0654  -41.7173   10.3535 C   0  0  0  0  0  0  0  0  0  0  0  0
   11.5794  -42.1073   11.7022 C   0  0  1  0  0  0  0  0  0  0  0  0
   11.7267  -43.6055   11.6838 C   0  0  0  0  0  0  0  0  0  0  0  0
  1  2  1  6
  2  3  1  1
  4  3  1  1
  5  4  1  6
  3  6  1  0
  6  7  2  0
  6  8  1  0
  9  8  1  1
  9 10  1  0
 10 11  1  6
 11 12  1  1
 13 12  1  1
 13 14  1  0
 14 15  1  6
 15 16  2  0
 17 16  1  1
 16 18  1  0
 18 19  2  0
 19 20  1  0
 20 21  2  0
 22 21  1  6
 23 22  1  6
 22  9  1  0
 22 12  1  0
 21 15  1  0
M  END
$$$$
