_rank5
     RDKit          3D

 23 25  0  0  0  0  0  0  0  0999 V2000
   18.1657  -43.2631    9.3087 C   0  0  0  0  0  0  0  0  0  0  0  0
   17.5365  -41.8693    9.3502 C   0  0  0  0  0  0  0  0  0  0  0  0
   16.7878  -41.6467   10.5477 N   0  0  0  0  0  0  0  0  0  0  0  0
   17.4690  -41.1930   11.7286 C   0  0  0  0  0  0  0  0  0  0  0  0
   18.0857  -42.3010   12.5241 C   0  0  0  0  0  0  0  0  0  0  0  0
   15.3910  -41.8708   10.5702 C   0  0  0  0  0  0  0  0  0  0  0  0
   14.9669  -42.9875   10.9663 O   0  0  0  0  0  0  0  0  0  0  0  0
   14.4396  -40.8876   10.1634 N   0  0  0  0  0  0  0  0  0  0  0  0
   13.1636  -40.7037   10.8592 C   0  0  2  0  0  0  0  0  0  0  0  0
   13.3746  -40.9120   12.3644 C   0  0  0  0  0  0  0  0  0  0  0  0
   12.3620  -41.9210   12.7964 C   0  0  0  0  0  0  0  0  0  0  0  0
   11.7111  -42.4056   11.6289 N   0  0  0  0  0  0  0  0  0  0  0  0
   10.3371  -42.6478   11.8468 C   0  0  0  0  0  0  0  0  0  0  0  0
    9.6370  -43.0570   10.5424 C   0  0  0  0  0  0  0  0  0  0  0  0
    9.8181  -41.8628    9.6766 C   0  0  0  0  0  0  0  0  0  0  0  0
    8.7495  -41.4080    8.8863 C   0  0  0  0  0  0  0  0  0  0  0  0
    7.4514  -42.0826    8.8874 C   0  0  0  0  0  0  0  0  0  0  0  0
    8.9408  -40.2973    8.0941 C   0  0  0  0  0  0  0  0  0  0  0  0
   10.1704  -39.6448    8.0823 C   0  0  0  0  0  0  0  0  0  0  0  0
   11.2121  -40.0852    8.8500 C   0  0  0  0  0  0  0  0  0  0  0  0
   11.0314  -41.2204    9.6660 C   0  0  0  0  0  0  0  0  0  0  0  0
   12.1248  -41.7092   10.4793 C   0  0  1  0  0  0  0  0  0  0  0  0
   12.8688  -42.7423    9.6007 C   0  0  0  0  0  0  0  0  0  0  0  0
  1  2  1  6
  2  3  1  1
  4  3  1  1
  5  4  1  6
  3  6  1  0
  6  7  2  0
  6  8  1  0
  9  8  1  6
  9 10  1  0
 10 11  1  6
 11 12  1  1
 13 12  1  1
 13 14  1  0
 14 15  1  6
 15 16  2  0
 17 16  1  1
 16 18  1  0
 18 19  2  0
 19 20  1  0
 20 21  2  0
 22 21  1  6
 23 22  1  6
 22  9  1  0
 22 12  1  0
 21 15  1  0
M  END
$$$$
