_rank11
     RDKit          3D

 23 25  0  0  0  0  0  0  0  0999 V2000
   18.6017  -44.6531    8.8509 C   0  0  0  0  0  0  0  0  0  0  0  0
   18.7388  -43.7102   10.0477 C   0  0  0  0  0  0  0  0  0  0  0  0
   17.5035  -43.5354   10.7459 N   0  0  0  0  0  0  0  0  0  0  0  0
   17.1406  -44.4683   11.7767 C   0  0  0  0  0  0  0  0  0  0  0  0
   17.8961  -44.2698   13.0536 C   0  0  0  0  0  0  0  0  0  0  0  0
   16.6472  -42.4557   10.4256 C   0  0  0  0  0  0  0  0  0  0  0  0
   17.0097  -41.6438    9.5350 O   0  0  0  0  0  0  0  0  0  0  0  0
   15.3898  -42.2444   11.0671 N   0  0  0  0  0  0  0  0  0  0  0  0
   14.4865  -41.1607   10.6726 C   0  0  2  0  0  0  0  0  0  0  0  0
   14.9681  -39.8473   11.3025 C   0  0  0  0  0  0  0  0  0  0  0  0
   13.7931  -39.2675   12.0189 C   0  0  0  0  0  0  0  0  0  0  0  0
   12.7434  -40.2254   11.9709 N   0  0  0  0  0  0  0  0  0  0  0  0
   11.4768  -39.6201   11.8183 C   0  0  0  0  0  0  0  0  0  0  0  0
   10.3773  -40.6797   11.6520 C   0  0  0  0  0  0  0  0  0  0  0  0
   10.7699  -41.3752   10.3987 C   0  0  0  0  0  0  0  0  0  0  0  0
    9.7874  -41.7106    9.4521 C   0  0  0  0  0  0  0  0  0  0  0  0
    8.3750  -41.3955    9.6660 C   0  0  0  0  0  0  0  0  0  0  0  0
   10.1762  -42.3525    8.2969 C   0  0  0  0  0  0  0  0  0  0  0  0
   11.5165  -42.6591    8.0793 C   0  0  0  0  0  0  0  0  0  0  0  0
   12.4746  -42.3343    8.9985 C   0  0  0  0  0  0  0  0  0  0  0  0
   12.0920  -41.6770   10.1855 C   0  0  0  0  0  0  0  0  0  0  0  0
   13.0897  -41.3329   11.1765 C   0  0  1  0  0  0  0  0  0  0  0  0
   13.1566  -42.5423   12.1386 C   0  0  0  0  0  0  0  0  0  0  0  0
  1  2  1  6
  2  3  1  1
  4  3  1  1
  5  4  1  6
  3  6  1  0
  6  7  2  0
  6  8  1  0
  9  8  1  1
  9 10  1  0
 10 11  1  6
 11 12  1  1
 13 12  1  1
 13 14  1  0
 14 15  1  6
 15 16  2  0
 17 16  1  1
 16 18  1  0
 18 19  2  0
 19 20  1  0
 20 21  2  0
 22 21  1  6
 23 22  1  6
 22  9  1  0
 22 12  1  0
 21 15  1  0
M  END
$$$$
