_rank10
     RDKit          3D

 23 25  0  0  0  0  0  0  0  0999 V2000
    8.7767  -43.8473    8.9012 C   0  0  0  0  0  0  0  0  0  0  0  0
    8.8606  -42.3322    9.0959 C   0  0  0  0  0  0  0  0  0  0  0  0
   10.0199  -41.9431    9.8368 N   0  0  0  0  0  0  0  0  0  0  0  0
    9.9557  -40.7858   10.6858 C   0  0  0  0  0  0  0  0  0  0  0  0
    9.3742  -39.5827   10.0111 C   0  0  0  0  0  0  0  0  0  0  0  0
   11.2176  -42.6893    9.7352 C   0  0  0  0  0  0  0  0  0  0  0  0
   11.4279  -43.3500    8.6849 O   0  0  0  0  0  0  0  0  0  0  0  0
   12.1994  -42.7276   10.7705 N   0  0  0  0  0  0  0  0  0  0  0  0
   13.5889  -43.1132   10.5123 C   0  0  2  0  0  0  0  0  0  0  0  0
   13.9246  -44.3683   11.3283 C   0  0  0  0  0  0  0  0  0  0  0  0
   15.1671  -44.0531   12.0945 C   0  0  0  0  0  0  0  0  0  0  0  0
   15.4606  -42.6766   11.8925 N   0  0  0  0  0  0  0  0  0  0  0  0
   16.8490  -42.4362   11.7998 C   0  0  0  0  0  0  0  0  0  0  0  0
   17.1311  -40.9638   11.4655 C   0  0  0  0  0  0  0  0  0  0  0  0
   16.4894  -40.7938   10.1359 C   0  0  0  0  0  0  0  0  0  0  0  0
   17.1507  -40.0666    9.1322 C   0  0  0  0  0  0  0  0  0  0  0  0
   18.4637  -39.4628    9.3592 C   0  0  0  0  0  0  0  0  0  0  0  0
   16.5370  -39.9250    7.9070 C   0  0  0  0  0  0  0  0  0  0  0  0
   15.2875  -40.4936    7.6761 C   0  0  0  0  0  0  0  0  0  0  0  0
   14.6416  -41.2016    8.6508 C   0  0  0  0  0  0  0  0  0  0  0  0
   15.2572  -41.3551    9.9097 C   0  0  0  0  0  0  0  0  0  0  0  0
   14.5858  -42.0928   10.9589 C   0  0  1  0  0  0  0  0  0  0  0  0
   13.7628  -41.0450   11.7446 C   0  0  0  0  0  0  0  0  0  0  0  0
  1  2  1  6
  2  3  1  1
  4  3  1  1
  5  4  1  6
  3  6  1  0
  6  7  2  0
  6  8  1  0
  9  8  1  1
  9 10  1  0
 10 11  1  6
 11 12  1  1
 13 12  1  1
 13 14  1  0
 14 15  1  6
 15 16  2  0
 17 16  1  1
 16 18  1  0
 18 19  2  0
 19 20  1  0
 20 21  2  0
 22 21  1  6
 23 22  1  6
 22  9  1  0
 22 12  1  0
 21 15  1  0
M  END
$$$$
