_rank1
     RDKit          3D

 23 25  0  0  0  0  0  0  0  0999 V2000
   16.3629  -43.8848   10.8936 C   0  0  0  0  0  0  0  0  0  0  0  0
   16.9759  -42.5361   11.1790 C   0  0  0  0  0  0  0  0  0  0  0  0
   16.3831  -41.4648   10.4422 N   0  0  0  0  0  0  0  0  0  0  0  0
   17.2041  -40.7663    9.4761 C   0  0  0  0  0  0  0  0  0  0  0  0
   18.2107  -39.8576   10.1353 C   0  0  0  0  0  0  0  0  0  0  0  0
   15.0377  -41.0368   10.5927 C   0  0  0  0  0  0  0  0  0  0  0  0
   14.4939  -40.2793    9.7703 O   0  0  0  0  0  0  0  0  0  0  0  0
   14.2245  -41.4539   11.7050 N   0  0  0  0  0  0  0  0  0  0  0  0
   12.9308  -40.9161   12.0077 C   0  0  2  0  0  0  0  0  0  0  0  0
   12.7439  -40.5906   13.4708 C   0  0  0  0  0  0  0  0  0  0  0  0
   11.2510  -40.6444   13.6474 C   0  0  0  0  0  0  0  0  0  0  0  0
   10.7877  -41.4161   12.6163 N   0  0  0  0  0  0  0  0  0  0  0  0
    9.6033  -42.1184   12.6491 C   0  0  0  0  0  0  0  0  0  0  0  0
    8.8686  -41.9640   11.3477 C   0  0  0  0  0  0  0  0  0  0  0  0
    9.7538  -41.5654   10.2284 C   0  0  0  0  0  0  0  0  0  0  0  0
    9.1030  -41.3043    9.0208 C   0  0  0  0  0  0  0  0  0  0  0  0
    7.6342  -41.4114    8.8641 C   0  0  0  0  0  0  0  0  0  0  0  0
    9.8361  -40.9302    7.9195 C   0  0  0  0  0  0  0  0  0  0  0  0
   11.1839  -40.8223    8.0312 C   0  0  0  0  0  0  0  0  0  0  0  0
   11.8221  -41.0802    9.2227 C   0  0  0  0  0  0  0  0  0  0  0  0
   11.1343  -41.4507   10.3283 C   0  0  0  0  0  0  0  0  0  0  0  0
   11.7687  -41.7437   11.6500 C   0  0  1  0  0  0  0  0  0  0  0  0
   12.0044  -43.2303   11.6879 C   0  0  0  0  0  0  0  0  0  0  0  0
  1  2  1  6
  2  3  1  1
  4  3  1  1
  5  4  1  6
  3  6  1  0
  6  7  2  0
  6  8  1  0
  9  8  1  1
  9 10  1  0
 10 11  1  6
 11 12  1  1
 13 12  1  1
 13 14  1  0
 14 15  1  6
 15 16  2  0
 17 16  1  1
 16 18  1  0
 18 19  2  0
 19 20  1  0
 20 21  2  0
 22 21  1  6
 23 22  1  6
 22  9  1  0
 22 12  1  0
 21 15  1  0
M  END
$$$$
