_rank9
     RDKit          3D

 23 25  0  0  0  0  0  0  0  0999 V2000
   18.2002  -43.8239   10.6897 C   0  0  0  0  0  0  0  0  0  0  0  0
   17.3149  -42.8688    9.8869 C   0  0  0  0  0  0  0  0  0  0  0  0
   17.2307  -41.5733   10.4858 N   0  0  0  0  0  0  0  0  0  0  0  0
   18.3203  -40.6511   10.3221 C   0  0  0  0  0  0  0  0  0  0  0  0
   18.2015  -39.7991    9.0970 C   0  0  0  0  0  0  0  0  0  0  0  0
   16.0872  -41.2029   11.2318 C   0  0  0  0  0  0  0  0  0  0  0  0
   16.0348  -40.0428   11.7170 O   0  0  0  0  0  0  0  0  0  0  0  0
   14.9890  -42.0855   11.4602 N   0  0  0  0  0  0  0  0  0  0  0  0
   13.6999  -41.6097   11.9684 C   0  0  2  0  0  0  0  0  0  0  0  0
   13.4679  -42.1831   13.3723 C   0  0  0  0  0  0  0  0  0  0  0  0
   12.1246  -42.8352   13.3447 C   0  0  0  0  0  0  0  0  0  0  0  0
   11.6600  -42.8082   12.0012 N   0  0  0  0  0  0  0  0  0  0  0  0
   10.2672  -42.5887   11.9237 C   0  0  0  0  0  0  0  0  0  0  0  0
    9.8130  -42.4475   10.4633 C   0  0  0  0  0  0  0  0  0  0  0  0
   10.5503  -41.2438    9.9985 C   0  0  0  0  0  0  0  0  0  0  0  0
    9.8934  -40.2891    9.2044 C   0  0  0  0  0  0  0  0  0  0  0  0
    8.4923  -40.4468    8.8146 C   0  0  0  0  0  0  0  0  0  0  0  0
   10.5971  -39.1804    8.7881 C   0  0  0  0  0  0  0  0  0  0  0  0
   11.9311  -39.0166    9.1509 C   0  0  0  0  0  0  0  0  0  0  0  0
   12.5729  -39.9439    9.9233 C   0  0  0  0  0  0  0  0  0  0  0  0
   11.8658  -41.0837   10.3570 C   0  0  0  0  0  0  0  0  0  0  0  0
   12.5297  -42.0827   11.1675 C   0  0  1  0  0  0  0  0  0  0  0  0
   13.1156  -43.1084   10.1686 C   0  0  0  0  0  0  0  0  0  0  0  0
  1  2  1  6
  2  3  1  1
  4  3  1  1
  5  4  1  6
  3  6  1  0
  6  7  2  0
  6  8  1  0
  9  8  1  6
  9 10  1  0
 10 11  1  6
 11 12  1  1
 13 12  1  1
 13 14  1  0
 14 15  1  6
 15 16  2  0
 17 16  1  1
 16 18  1  0
 18 19  2  0
 19 20  1  0
 20 21  2  0
 22 21  1  6
 23 22  1  6
 22  9  1  0
 22 12  1  0
 21 15  1  0
M  END
$$$$
