_rank14
     RDKit          3D

 23 25  0  0  0  0  0  0  0  0999 V2000
   18.4556  -40.7118    9.4561 C   0  0  0  0  0  0  0  0  0  0  0  0
   18.7671  -41.1441   10.8676 C   0  0  0  0  0  0  0  0  0  0  0  0
   17.6153  -41.2497   11.7067 N   0  0  0  0  0  0  0  0  0  0  0  0
   17.8003  -41.7266   13.0608 C   0  0  0  0  0  0  0  0  0  0  0  0
   19.2357  -42.0899   13.3454 C   0  0  0  0  0  0  0  0  0  0  0  0
   16.2957  -40.9168   11.3019 C   0  0  0  0  0  0  0  0  0  0  0  0
   16.0741  -40.0757   10.4134 O   0  0  0  0  0  0  0  0  0  0  0  0
   15.1377  -41.5325   11.8953 N   0  0  0  0  0  0  0  0  0  0  0  0
   14.2379  -42.4036   11.1980 C   0  0  2  0  0  0  0  0  0  0  0  0
   14.9276  -43.5731   10.5361 C   0  0  0  0  0  0  0  0  0  0  0  0
   13.9772  -43.9548    9.4345 C   0  0  0  0  0  0  0  0  0  0  0  0
   13.2195  -42.8390    9.2013 N   0  0  0  0  0  0  0  0  0  0  0  0
   12.5900  -42.5689    8.0064 C   0  0  0  0  0  0  0  0  0  0  0  0
   11.1973  -42.0621    8.2530 C   0  0  0  0  0  0  0  0  0  0  0  0
   11.0167  -41.5090    9.6155 C   0  0  0  0  0  0  0  0  0  0  0  0
    9.7124  -41.1229    9.9316 C   0  0  0  0  0  0  0  0  0  0  0  0
    8.5854  -41.2581    8.9803 C   0  0  0  0  0  0  0  0  0  0  0  0
    9.4405  -40.5939   11.1711 C   0  0  0  0  0  0  0  0  0  0  0  0
   10.4518  -40.4580   12.0653 C   0  0  0  0  0  0  0  0  0  0  0  0
   11.7359  -40.8394   11.7508 C   0  0  0  0  0  0  0  0  0  0  0  0
   12.0421  -41.3642   10.5410 C   0  0  0  0  0  0  0  0  0  0  0  0
   13.4156  -41.7976   10.1397 C   0  0  1  0  0  0  0  0  0  0  0  0
   14.0419  -40.6247    9.4336 C   0  0  0  0  0  0  0  0  0  0  0  0
  1  2  1  6
  2  3  1  1
  4  3  1  1
  5  4  1  6
  3  6  1  0
  6  7  2  0
  6  8  1  0
  9  8  1  6
  9 10  1  0
 10 11  1  6
 11 12  1  1
 13 12  1  1
 13 14  1  0
 14 15  1  6
 15 16  2  0
 17 16  1  1
 16 18  1  0
 18 19  2  0
 19 20  1  0
 20 21  2  0
 22 21  1  1
 23 22  1  6
 22  9  1  0
 22 12  1  0
 21 15  1  0
M  END
$$$$
