_rank11
     RDKit          3D

 21 22  0  0  0  0  0  0  0  0999 V2000
   26.4390    1.3725   -8.1224 C   0  0  0  0  0  0  0  0  0  0  0  0
   26.6260   -0.2746   -8.8006 S   0  0  1  0  0  6  0  0  0  0  0  0
   27.8654   -0.8909   -8.2485 O   0  0  0  0  0  0  0  0  0  0  0  0
   25.4470   -1.0926   -8.3831 O   0  0  0  0  0  0  0  0  0  0  0  0
   26.7013   -0.2169  -10.5301 C   0  0  0  0  0  0  0  0  0  0  0  0
   27.9213   -0.0993  -11.1909 C   0  0  0  0  0  0  0  0  0  0  0  0
   27.9970   -0.0547  -12.5434 C   0  0  0  0  0  0  0  0  0  0  0  0
   26.8458   -0.1270  -13.2753 C   0  0  0  0  0  0  0  0  0  0  0  0
   25.6337   -0.2428  -12.6554 C   0  0  0  0  0  0  0  0  0  0  0  0
   25.5437   -0.2897  -11.2656 C   0  0  0  0  0  0  0  0  0  0  0  0
   24.2093   -0.4113  -10.7168 C   0  0  0  0  0  0  0  0  0  0  0  0
   23.9626   -0.1066   -9.5239 O   0  0  0  0  0  0  0  0  0  0  0  0
   23.1641   -0.8815  -11.5380 O   0  0  0  0  0  0  0  0  0  0  0  0
   21.8719   -0.8585  -11.0081 C   0  0  0  0  0  0  0  0  0  0  0  0
   21.0043   -1.8967  -11.2822 C   0  0  0  0  0  0  0  0  0  0  0  0
   19.7232   -1.8456  -10.7399 C   0  0  0  0  0  0  0  0  0  0  0  0
   18.9001   -2.8990  -11.0408 F   0  0  0  0  0  0  0  0  0  0  0  0
   19.2885   -0.8206   -9.9535 C   0  0  0  0  0  0  0  0  0  0  0  0
   20.1787    0.2240   -9.6846 C   0  0  0  0  0  0  0  0  0  0  0  0
   19.7829    1.2691   -8.9017 F   0  0  0  0  0  0  0  0  0  0  0  0
   21.4513    0.2002  -10.2072 C   0  0  0  0  0  0  0  0  0  0  0  0
  1  2  1  1
  2  3  2  0
  2  4  2  0
  2  5  1  6
  5  6  2  0
  6  7  1  0
  7  8  2  0
  8  9  1  0
  9 10  2  0
 10 11  1  0
 11 12  2  0
 11 13  1  0
 13 14  1  0
 14 15  2  0
 15 16  1  0
 16 17  1  0
 16 18  2  0
 18 19  1  0
 19 20  1  0
 19 21  2  0
 10  5  1  0
 21 14  1  0
M  END
$$$$
