_rank1
     RDKit          3D

 21 22  0  0  0  0  0  0  0  0999 V2000
   26.3623   -0.1847  -13.2499 C   0  0  0  0  0  0  0  0  0  0  0  0
   26.3354    1.1225  -12.0259 S   0  0  1  0  0  6  0  0  0  0  0  0
   27.4059    2.1094  -12.3435 O   0  0  0  0  0  0  0  0  0  0  0  0
   25.0074    1.8047  -12.0942 O   0  0  0  0  0  0  0  0  0  0  0  0
   26.5667    0.4743  -10.4364 C   0  0  0  0  0  0  0  0  0  0  0  0
   27.8139    0.5186   -9.8187 C   0  0  0  0  0  0  0  0  0  0  0  0
   28.0105    0.0173   -8.5749 C   0  0  0  0  0  0  0  0  0  0  0  0
   26.9570   -0.5453   -7.9119 C   0  0  0  0  0  0  0  0  0  0  0  0
   25.7212   -0.6035   -8.4919 C   0  0  0  0  0  0  0  0  0  0  0  0
   25.5072   -0.0914   -9.7702 C   0  0  0  0  0  0  0  0  0  0  0  0
   24.1596   -0.2086  -10.2866 C   0  0  0  0  0  0  0  0  0  0  0  0
   23.9390   -0.3290  -11.5168 O   0  0  0  0  0  0  0  0  0  0  0  0
   23.0713   -0.1871   -9.3904 O   0  0  0  0  0  0  0  0  0  0  0  0
   21.7905   -0.3133   -9.9333 C   0  0  0  0  0  0  0  0  0  0  0  0
   20.9222    0.7589   -9.8872 C   0  0  0  0  0  0  0  0  0  0  0  0
   19.6526    0.6028  -10.4364 C   0  0  0  0  0  0  0  0  0  0  0  0
   18.8282    1.6951  -10.3660 F   0  0  0  0  0  0  0  0  0  0  0  0
   19.2298   -0.5565  -11.0154 C   0  0  0  0  0  0  0  0  0  0  0  0
   20.1206   -1.6340  -11.0547 C   0  0  0  0  0  0  0  0  0  0  0  0
   19.7366   -2.8123  -11.6254 F   0  0  0  0  0  0  0  0  0  0  0  0
   21.3820   -1.5084  -10.5196 C   0  0  0  0  0  0  0  0  0  0  0  0
  1  2  1  1
  2  3  2  0
  2  4  2  0
  2  5  1  1
  5  6  2  0
  6  7  1  0
  7  8  2  0
  8  9  1  0
  9 10  2  0
 10 11  1  0
 11 12  2  0
 11 13  1  0
 13 14  1  0
 14 15  2  0
 15 16  1  0
 16 17  1  0
 16 18  2  0
 18 19  1  0
 19 20  1  0
 19 21  2  0
 10  5  1  0
 21 14  1  0
M  END
$$$$
