_rank8
     RDKit          3D

 21 22  0  0  0  0  0  0  0  0999 V2000
   26.4883   -1.7495   -8.0649 C   0  0  0  0  0  0  0  0  0  0  0  0
   26.6746   -0.0292   -8.5270 S   0  0  1  0  0  6  0  0  0  0  0  0
   25.5314    0.7504   -7.9739 O   0  0  0  0  0  0  0  0  0  0  0  0
   27.9468    0.4830   -7.9331 O   0  0  0  0  0  0  0  0  0  0  0  0
   26.7382    0.1359  -10.2500 C   0  0  0  0  0  0  0  0  0  0  0  0
   27.9395    0.4058  -10.9004 C   0  0  0  0  0  0  0  0  0  0  0  0
   28.0059    0.5360  -12.2479 C   0  0  0  0  0  0  0  0  0  0  0  0
   26.8641    0.3987  -12.9850 C   0  0  0  0  0  0  0  0  0  0  0  0
   25.6703    0.1337  -12.3754 C   0  0  0  0  0  0  0  0  0  0  0  0
   25.5899   -0.0022  -10.9908 C   0  0  0  0  0  0  0  0  0  0  0  0
   24.2747   -0.2803  -10.4528 C   0  0  0  0  0  0  0  0  0  0  0  0
   24.0973   -0.4683   -9.2241 O   0  0  0  0  0  0  0  0  0  0  0  0
   23.1692   -0.3415  -11.3257 O   0  0  0  0  0  0  0  0  0  0  0  0
   21.9074   -0.5140  -10.7520 C   0  0  0  0  0  0  0  0  0  0  0  0
   21.2733    0.5620  -10.1639 C   0  0  0  0  0  0  0  0  0  0  0  0
   20.0166    0.3589   -9.6006 C   0  0  0  0  0  0  0  0  0  0  0  0
   19.4288    1.4571   -9.0295 F   0  0  0  0  0  0  0  0  0  0  0  0
   19.3863   -0.8497   -9.6034 C   0  0  0  0  0  0  0  0  0  0  0  0
   20.0412   -1.9304  -10.2029 C   0  0  0  0  0  0  0  0  0  0  0  0
   19.4448   -3.1574  -10.2271 F   0  0  0  0  0  0  0  0  0  0  0  0
   21.2842   -1.7591  -10.7677 C   0  0  0  0  0  0  0  0  0  0  0  0
  1  2  1  1
  2  3  2  0
  2  4  2  0
  2  5  1  6
  5  6  2  0
  6  7  1  0
  7  8  2  0
  8  9  1  0
  9 10  2  0
 10 11  1  0
 11 12  2  0
 11 13  1  0
 13 14  1  0
 14 15  2  0
 15 16  1  0
 16 17  1  0
 16 18  2  0
 18 19  1  0
 19 20  1  0
 19 21  2  0
 10  5  1  0
 21 14  1  0
M  END
$$$$
