_rank12
     RDKit          3D

 21 22  0  0  0  0  0  0  0  0999 V2000
   25.9951    0.4244   -7.9230 C   0  0  0  0  0  0  0  0  0  0  0  0
   26.7331   -0.6706   -9.1329 S   0  0  1  0  0  6  0  0  0  0  0  0
   28.1320   -0.9787   -8.7219 O   0  0  0  0  0  0  0  0  0  0  0  0
   25.9434   -1.9391   -9.1639 O   0  0  0  0  0  0  0  0  0  0  0  0
   26.7138    0.0562  -10.7050 C   0  0  0  0  0  0  0  0  0  0  0  0
   27.8992    0.3887  -11.3556 C   0  0  0  0  0  0  0  0  0  0  0  0
   27.9007    0.9562  -12.5864 C   0  0  0  0  0  0  0  0  0  0  0  0
   26.7080    1.2077  -13.2028 C   0  0  0  0  0  0  0  0  0  0  0  0
   25.5281    0.8927  -12.5897 C   0  0  0  0  0  0  0  0  0  0  0  0
   25.5142    0.3090  -11.3244 C   0  0  0  0  0  0  0  0  0  0  0  0
   24.2083    0.0198  -10.7700 C   0  0  0  0  0  0  0  0  0  0  0  0
   24.0815   -0.5563   -9.6616 O   0  0  0  0  0  0  0  0  0  0  0  0
   23.0539    0.3922  -11.4888 O   0  0  0  0  0  0  0  0  0  0  0  0
   21.8174    0.0328  -10.9478 C   0  0  0  0  0  0  0  0  0  0  0  0
   20.7775    0.9405  -10.9621 C   0  0  0  0  0  0  0  0  0  0  0  0
   19.5571    0.5533  -10.4156 C   0  0  0  0  0  0  0  0  0  0  0  0
   18.5568    1.4891  -10.4537 F   0  0  0  0  0  0  0  0  0  0  0  0
   19.3435   -0.6770   -9.8690 C   0  0  0  0  0  0  0  0  0  0  0  0
   20.4064   -1.5859   -9.8617 C   0  0  0  0  0  0  0  0  0  0  0  0
   20.2343   -2.8281   -9.3240 F   0  0  0  0  0  0  0  0  0  0  0  0
   21.6241   -1.2306  -10.3950 C   0  0  0  0  0  0  0  0  0  0  0  0
  1  2  1  1
  2  3  2  0
  2  4  2  0
  2  5  1  6
  5  6  2  0
  6  7  1  0
  7  8  2  0
  8  9  1  0
  9 10  2  0
 10 11  1  0
 11 12  2  0
 11 13  1  0
 13 14  1  0
 14 15  2  0
 15 16  1  0
 16 17  1  0
 16 18  2  0
 18 19  1  0
 19 20  1  0
 19 21  2  0
 10  5  1  0
 21 14  1  0
M  END
$$$$
