_rank16
     RDKit          3D

 21 22  0  0  0  0  0  0  0  0999 V2000
   27.6020   -1.1926   -9.9325 C   0  0  0  0  0  0  0  0  0  0  0  0
   27.0088    0.1464   -8.9016 S   0  0  1  0  0  6  0  0  0  0  0  0
   26.3221   -0.4247   -7.7087 O   0  0  0  0  0  0  0  0  0  0  0  0
   28.1853    0.9494   -8.4490 O   0  0  0  0  0  0  0  0  0  0  0  0
   25.9255    1.1655   -9.7893 C   0  0  0  0  0  0  0  0  0  0  0  0
   26.1524    2.5355   -9.8920 C   0  0  0  0  0  0  0  0  0  0  0  0
   25.3152    3.3458  -10.5844 C   0  0  0  0  0  0  0  0  0  0  0  0
   24.2213    2.8028  -11.1963 C   0  0  0  0  0  0  0  0  0  0  0  0
   23.9719    1.4619  -11.1134 C   0  0  0  0  0  0  0  0  0  0  0  0
   24.8257    0.6191  -10.4044 C   0  0  0  0  0  0  0  0  0  0  0  0
   24.4635   -0.7826  -10.3813 C   0  0  0  0  0  0  0  0  0  0  0  0
   25.1173   -1.6376  -11.0279 O   0  0  0  0  0  0  0  0  0  0  0  0
   23.3536   -1.1975   -9.6172 O   0  0  0  0  0  0  0  0  0  0  0  0
   22.0844   -0.8633  -10.0952 C   0  0  0  0  0  0  0  0  0  0  0  0
   21.4112   -1.7458  -10.9159 C   0  0  0  0  0  0  0  0  0  0  0  0
   20.1480   -1.3847  -11.3764 C   0  0  0  0  0  0  0  0  0  0  0  0
   19.5209   -2.2937  -12.1876 F   0  0  0  0  0  0  0  0  0  0  0  0
   19.5483   -0.2037  -11.0547 C   0  0  0  0  0  0  0  0  0  0  0  0
   20.2427    0.6802  -10.2223 C   0  0  0  0  0  0  0  0  0  0  0  0
   19.6777    1.8730   -9.8763 F   0  0  0  0  0  0  0  0  0  0  0  0
   21.4929    0.3497   -9.7521 C   0  0  0  0  0  0  0  0  0  0  0  0
  1  2  1  1
  2  3  2  0
  2  4  2  0
  2  5  1  6
  5  6  2  0
  6  7  1  0
  7  8  2  0
  8  9  1  0
  9 10  2  0
 10 11  1  0
 11 12  2  0
 11 13  1  0
 13 14  1  0
 14 15  2  0
 15 16  1  0
 16 17  1  0
 16 18  2  0
 18 19  1  0
 19 20  1  0
 19 21  2  0
 10  5  1  0
 21 14  1  0
M  END
$$$$
