_rank17
     RDKit          3D

 21 22  0  0  0  0  0  0  0  0999 V2000
   26.2548    1.2164   -7.5173 C   0  0  0  0  0  0  0  0  0  0  0  0
   26.8104    0.9357   -9.1966 S   0  0  1  0  0  6  0  0  0  0  0  0
   25.9521    1.7176  -10.1308 O   0  0  0  0  0  0  0  0  0  0  0  0
   28.2209    1.4161   -9.3127 O   0  0  0  0  0  0  0  0  0  0  0  0
   26.7443   -0.7505   -9.5870 C   0  0  0  0  0  0  0  0  0  0  0  0
   27.8983   -1.5298   -9.5965 C   0  0  0  0  0  0  0  0  0  0  0  0
   27.8628   -2.8507   -9.8980 C   0  0  0  0  0  0  0  0  0  0  0  0
   26.6634   -3.4305  -10.2001 C   0  0  0  0  0  0  0  0  0  0  0  0
   25.5139   -2.6919  -10.1992 C   0  0  0  0  0  0  0  0  0  0  0  0
   25.5382   -1.3331   -9.8907 C   0  0  0  0  0  0  0  0  0  0  0  0
   24.2623   -0.6492   -9.9223 C   0  0  0  0  0  0  0  0  0  0  0  0
   23.8400   -0.0071   -8.9294 O   0  0  0  0  0  0  0  0  0  0  0  0
   23.4768   -0.7046  -11.0918 O   0  0  0  0  0  0  0  0  0  0  0  0
   22.0890   -0.6958  -10.9335 C   0  0  0  0  0  0  0  0  0  0  0  0
   21.3388   -1.7385  -11.4391 C   0  0  0  0  0  0  0  0  0  0  0  0
   19.9580   -1.7016  -11.2658 C   0  0  0  0  0  0  0  0  0  0  0  0
   19.2580   -2.7589  -11.7851 F   0  0  0  0  0  0  0  0  0  0  0  0
   19.3158   -0.6863  -10.6219 C   0  0  0  0  0  0  0  0  0  0  0  0
   20.0892    0.3632  -10.1151 C   0  0  0  0  0  0  0  0  0  0  0  0
   19.4853    1.3990   -9.4639 F   0  0  0  0  0  0  0  0  0  0  0  0
   21.4562    0.3532  -10.2716 C   0  0  0  0  0  0  0  0  0  0  0  0
  1  2  1  1
  2  3  2  0
  2  4  2  0
  2  5  1  6
  5  6  2  0
  6  7  1  0
  7  8  2  0
  8  9  1  0
  9 10  2  0
 10 11  1  0
 11 12  2  0
 11 13  1  0
 13 14  1  0
 14 15  2  0
 15 16  1  0
 16 17  1  0
 16 18  2  0
 18 19  1  0
 19 20  1  0
 19 21  2  0
 10  5  1  0
 21 14  1  0
M  END
$$$$
