_rank9
     RDKit          3D

 21 22  0  0  0  0  0  0  0  0999 V2000
   25.8873    0.7420  -12.8618 C   0  0  0  0  0  0  0  0  0  0  0  0
   27.0761   -0.0618  -11.7901 S   0  0  1  0  0  6  0  0  0  0  0  0
   27.3809   -1.4167  -12.3305 O   0  0  0  0  0  0  0  0  0  0  0  0
   28.3290    0.7529  -11.7815 O   0  0  0  0  0  0  0  0  0  0  0  0
   26.4585   -0.1823  -10.1764 C   0  0  0  0  0  0  0  0  0  0  0  0
   27.3175   -0.3050   -9.0874 C   0  0  0  0  0  0  0  0  0  0  0  0
   26.8499   -0.3985   -7.8187 C   0  0  0  0  0  0  0  0  0  0  0  0
   25.5010   -0.3716   -7.6050 C   0  0  0  0  0  0  0  0  0  0  0  0
   24.6328   -0.2521   -8.6533 C   0  0  0  0  0  0  0  0  0  0  0  0
   25.1021   -0.1552   -9.9619 C   0  0  0  0  0  0  0  0  0  0  0  0
   24.0934   -0.0345  -10.9936 C   0  0  0  0  0  0  0  0  0  0  0  0
   24.2064   -0.6331  -12.0916 O   0  0  0  0  0  0  0  0  0  0  0  0
   22.9602    0.7717  -10.7619 O   0  0  0  0  0  0  0  0  0  0  0  0
   21.7341    0.1231  -10.5976 C   0  0  0  0  0  0  0  0  0  0  0  0
   20.6146    0.8571  -10.2604 C   0  0  0  0  0  0  0  0  0  0  0  0
   19.4070    0.1826  -10.1037 C   0  0  0  0  0  0  0  0  0  0  0  0
   18.3256    0.9549   -9.7690 F   0  0  0  0  0  0  0  0  0  0  0  0
   19.2804   -1.1646  -10.2675 C   0  0  0  0  0  0  0  0  0  0  0  0
   20.4233   -1.8949  -10.6090 C   0  0  0  0  0  0  0  0  0  0  0  0
   20.3396   -3.2457  -10.7823 F   0  0  0  0  0  0  0  0  0  0  0  0
   21.6306   -1.2548  -10.7705 C   0  0  0  0  0  0  0  0  0  0  0  0
  1  2  1  1
  2  3  2  0
  2  4  2  0
  2  5  1  1
  5  6  2  0
  6  7  1  0
  7  8  2  0
  8  9  1  0
  9 10  2  0
 10 11  1  0
 11 12  2  0
 11 13  1  0
 13 14  1  0
 14 15  2  0
 15 16  1  0
 16 17  1  0
 16 18  2  0
 18 19  1  0
 19 20  1  0
 19 21  2  0
 10  5  1  0
 21 14  1  0
M  END
$$$$
