_rank8
     RDKit          3D

 17 18  0  0  0  0  0  0  0  0999 V2000
   24.4588    2.1614  -12.5807 N   0  0  0  0  0  0  0  0  0  0  0  0
   23.7973    1.4676  -11.9357 C   0  0  0  0  0  0  0  0  0  0  0  0
   22.9645    0.6160  -11.1105 C   0  0  0  0  0  0  0  0  0  0  0  0
   21.6692    1.0002  -10.8463 C   0  0  0  0  0  0  0  0  0  0  0  0
   20.8804    0.1819  -10.0577 C   0  0  0  0  0  0  0  0  0  0  0  0
   19.0891    0.7147   -9.6933 Br  0  0  0  0  0  0  0  0  0  0  0  0
   21.4090   -0.9939   -9.5577 C   0  0  0  0  0  0  0  0  0  0  0  0
   22.7032   -1.3896   -9.8146 C   0  0  0  0  0  0  0  0  0  0  0  0
   23.4818   -0.5695  -10.6004 C   0  0  0  0  0  0  0  0  0  0  0  0
   24.7880   -0.9172  -10.8905 O   0  0  0  0  0  0  0  0  0  0  0  0
   25.7349   -0.9963   -9.9014 C   0  0  0  0  0  0  0  0  0  0  0  0
   26.4102   -2.1664   -9.5790 C   0  0  0  0  0  0  0  0  0  0  0  0
   27.3517   -2.2272   -8.5894 C   0  0  0  0  0  0  0  0  0  0  0  0
   27.6444   -1.0773   -7.8797 C   0  0  0  0  0  0  0  0  0  0  0  0
   27.0023    0.1178   -8.1577 C   0  0  0  0  0  0  0  0  0  0  0  0
   27.2901    1.2297   -7.4663 F   0  0  0  0  0  0  0  0  0  0  0  0
   26.0535    0.1205   -9.1751 C   0  0  0  0  0  0  0  0  0  0  0  0
  1  2  3  0
  2  3  1  0
  3  4  2  0
  4  5  1  0
  5  6  1  0
  5  7  2  0
  7  8  1  0
  8  9  2  0
  9 10  1  0
 10 11  1  0
 11 12  2  0
 12 13  1  0
 13 14  2  0
 14 15  1  0
 15 16  1  0
 15 17  2  0
  9  3  1  0
 17 11  1  0
M  END
$$$$
