_rank14
     RDKit          3D

 17 18  0  0  0  0  0  0  0  0999 V2000
   25.5728   -0.0278   -7.0137 N   0  0  0  0  0  0  0  0  0  0  0  0
   25.6173   -0.1270   -8.1640 C   0  0  0  0  0  0  0  0  0  0  0  0
   25.6662   -0.2753   -9.6046 C   0  0  0  0  0  0  0  0  0  0  0  0
   26.8543   -0.6334  -10.2005 C   0  0  0  0  0  0  0  0  0  0  0  0
   26.8929   -0.7729  -11.5763 C   0  0  0  0  0  0  0  0  0  0  0  0
   28.5371   -1.2683  -12.3990 Br  0  0  0  0  0  0  0  0  0  0  0  0
   25.7447   -0.5508  -12.3139 C   0  0  0  0  0  0  0  0  0  0  0  0
   24.5497   -0.1921  -11.7299 C   0  0  0  0  0  0  0  0  0  0  0  0
   24.5197   -0.0552  -10.3600 C   0  0  0  0  0  0  0  0  0  0  0  0
   23.3474    0.3029   -9.7208 O   0  0  0  0  0  0  0  0  0  0  0  0
   22.1425   -0.2291  -10.1035 C   0  0  0  0  0  0  0  0  0  0  0  0
   21.9829   -1.5452  -10.5175 C   0  0  0  0  0  0  0  0  0  0  0  0
   20.7736   -2.0591  -10.8957 C   0  0  0  0  0  0  0  0  0  0  0  0
   19.6633   -1.2357  -10.8652 C   0  0  0  0  0  0  0  0  0  0  0  0
   19.7632    0.0851  -10.4611 C   0  0  0  0  0  0  0  0  0  0  0  0
   18.6832    0.8789  -10.4335 F   0  0  0  0  0  0  0  0  0  0  0  0
   21.0186    0.5537  -10.0874 C   0  0  0  0  0  0  0  0  0  0  0  0
  1  2  3  0
  2  3  1  0
  3  4  2  0
  4  5  1  0
  5  6  1  0
  5  7  2  0
  7  8  1  0
  8  9  2  0
  9 10  1  0
 10 11  1  0
 11 12  2  0
 12 13  1  0
 13 14  2  0
 14 15  1  0
 15 16  1  0
 15 17  2  0
  9  3  1  0
 17 11  1  0
M  END
$$$$
