_rank18
     RDKit          3D

 17 18  0  0  0  0  0  0  0  0999 V2000
   24.4371    0.1378   -6.2202 N   0  0  0  0  0  0  0  0  0  0  0  0
   24.8801   -0.0183   -7.2759 C   0  0  0  0  0  0  0  0  0  0  0  0
   25.4125   -0.2175   -8.6088 C   0  0  0  0  0  0  0  0  0  0  0  0
   26.7760   -0.2994   -8.7793 C   0  0  0  0  0  0  0  0  0  0  0  0
   27.2767   -0.4897  -10.0548 C   0  0  0  0  0  0  0  0  0  0  0  0
   29.1629   -0.6027  -10.2889 Br  0  0  0  0  0  0  0  0  0  0  0  0
   26.4009   -0.5922  -11.1198 C   0  0  0  0  0  0  0  0  0  0  0  0
   25.0347   -0.5120  -10.9626 C   0  0  0  0  0  0  0  0  0  0  0  0
   24.5444   -0.3225   -9.6899 C   0  0  0  0  0  0  0  0  0  0  0  0
   23.1818   -0.2346   -9.4737 O   0  0  0  0  0  0  0  0  0  0  0  0
   22.2880   -0.7525  -10.3759 C   0  0  0  0  0  0  0  0  0  0  0  0
   21.7919   -0.0385  -11.4591 C   0  0  0  0  0  0  0  0  0  0  0  0
   20.9009   -0.5708  -12.3491 C   0  0  0  0  0  0  0  0  0  0  0  0
   20.4755   -1.8733  -12.1644 C   0  0  0  0  0  0  0  0  0  0  0  0
   20.9366   -2.6325  -11.1020 C   0  0  0  0  0  0  0  0  0  0  0  0
   20.5206   -3.8950  -10.9278 F   0  0  0  0  0  0  0  0  0  0  0  0
   21.8419   -2.0392  -10.2282 C   0  0  0  0  0  0  0  0  0  0  0  0
  1  2  3  0
  2  3  1  0
  3  4  2  0
  4  5  1  0
  5  6  1  0
  5  7  2  0
  7  8  1  0
  8  9  2  0
  9 10  1  0
 10 11  1  0
 11 12  2  0
 12 13  1  0
 13 14  2  0
 14 15  1  0
 15 16  1  0
 15 17  2  0
  9  3  1  0
 17 11  1  0
M  END
$$$$
