_rank20
     RDKit          3D

 17 18  0  0  0  0  0  0  0  0999 V2000
   22.1409   -2.1574   -8.8592 N   0  0  0  0  0  0  0  0  0  0  0  0
   23.0394   -1.4901   -9.1460 C   0  0  0  0  0  0  0  0  0  0  0  0
   24.1795   -0.6736   -9.5114 C   0  0  0  0  0  0  0  0  0  0  0  0
   25.3900   -0.9012   -8.8967 C   0  0  0  0  0  0  0  0  0  0  0  0
   26.4736   -0.1176   -9.2509 C   0  0  0  0  0  0  0  0  0  0  0  0
   28.1473   -0.4337   -8.3997 Br  0  0  0  0  0  0  0  0  0  0  0  0
   26.3150    0.8683  -10.2072 C   0  0  0  0  0  0  0  0  0  0  0  0
   25.1093    1.1062  -10.8296 C   0  0  0  0  0  0  0  0  0  0  0  0
   24.0357    0.3219  -10.4715 C   0  0  0  0  0  0  0  0  0  0  0  0
   22.8018    0.5166  -11.0638 O   0  0  0  0  0  0  0  0  0  0  0  0
   22.3329   -0.3467  -12.0209 C   0  0  0  0  0  0  0  0  0  0  0  0
   20.9849   -0.5060  -12.3148 C   0  0  0  0  0  0  0  0  0  0  0  0
   20.5350   -1.3717  -13.2726 C   0  0  0  0  0  0  0  0  0  0  0  0
   21.4589   -2.1199  -13.9783 C   0  0  0  0  0  0  0  0  0  0  0  0
   22.8158   -2.0024  -13.7278 C   0  0  0  0  0  0  0  0  0  0  0  0
   23.7072   -2.7304  -14.4152 F   0  0  0  0  0  0  0  0  0  0  0  0
   23.2160   -1.1060  -12.7421 C   0  0  0  0  0  0  0  0  0  0  0  0
  1  2  3  0
  2  3  1  0
  3  4  2  0
  4  5  1  0
  5  6  1  0
  5  7  2  0
  7  8  1  0
  8  9  2  0
  9 10  1  0
 10 11  1  0
 11 12  2  0
 12 13  1  0
 13 14  2  0
 14 15  1  0
 15 16  1  0
 15 17  2  0
  9  3  1  0
 17 11  1  0
M  END
$$$$
