_rank13
     RDKit          3D

 17 18  0  0  0  0  0  0  0  0999 V2000
   25.7043   -0.4434   -7.1887 N   0  0  0  0  0  0  0  0  0  0  0  0
   25.6512   -0.3781   -8.3410 C   0  0  0  0  0  0  0  0  0  0  0  0
   25.6093   -0.2986   -9.7873 C   0  0  0  0  0  0  0  0  0  0  0  0
   26.7887   -0.3555  -10.4950 C   0  0  0  0  0  0  0  0  0  0  0  0
   26.7405   -0.2789  -11.8754 C   0  0  0  0  0  0  0  0  0  0  0  0
   28.3727   -0.3578  -12.8528 Br  0  0  0  0  0  0  0  0  0  0  0  0
   25.5170   -0.1480  -12.5060 C   0  0  0  0  0  0  0  0  0  0  0  0
   24.3298   -0.0899  -11.8096 C   0  0  0  0  0  0  0  0  0  0  0  0
   24.3864   -0.1667  -10.4358 C   0  0  0  0  0  0  0  0  0  0  0  0
   23.2260   -0.1135   -9.6864 O   0  0  0  0  0  0  0  0  0  0  0  0
   22.0189   -0.4785  -10.2254 C   0  0  0  0  0  0  0  0  0  0  0  0
   21.0132    0.4276  -10.5364 C   0  0  0  0  0  0  0  0  0  0  0  0
   19.8152    0.0459  -11.0736 C   0  0  0  0  0  0  0  0  0  0  0  0
   19.5946   -1.2970  -11.3178 C   0  0  0  0  0  0  0  0  0  0  0  0
   20.5614   -2.2450  -11.0276 C   0  0  0  0  0  0  0  0  0  0  0  0
   20.3420   -3.5458  -11.2665 F   0  0  0  0  0  0  0  0  0  0  0  0
   21.7611   -1.7991  -10.4824 C   0  0  0  0  0  0  0  0  0  0  0  0
  1  2  3  0
  2  3  1  0
  3  4  2  0
  4  5  1  0
  5  6  1  0
  5  7  2  0
  7  8  1  0
  8  9  2  0
  9 10  1  0
 10 11  1  0
 11 12  2  0
 12 13  1  0
 13 14  2  0
 14 15  1  0
 15 16  1  0
 15 17  2  0
  9  3  1  0
 17 11  1  0
M  END
$$$$
