_rank5
     RDKit          3D

 17 18  0  0  0  0  0  0  0  0999 V2000
   25.9482    0.8756  -13.7791 N   0  0  0  0  0  0  0  0  0  0  0  0
   25.9012    0.5329  -12.6767 C   0  0  0  0  0  0  0  0  0  0  0  0
   25.8293    0.0832  -11.3011 C   0  0  0  0  0  0  0  0  0  0  0  0
   26.9867    0.0109  -10.5593 C   0  0  0  0  0  0  0  0  0  0  0  0
   26.9098   -0.4194   -9.2468 C   0  0  0  0  0  0  0  0  0  0  0  0
   28.5117   -0.5189   -8.2222 Br  0  0  0  0  0  0  0  0  0  0  0  0
   25.6805   -0.7639   -8.7160 C   0  0  0  0  0  0  0  0  0  0  0  0
   24.5151   -0.6960   -9.4474 C   0  0  0  0  0  0  0  0  0  0  0  0
   24.6002   -0.2668  -10.7531 C   0  0  0  0  0  0  0  0  0  0  0  0
   23.4625   -0.1793  -11.5336 O   0  0  0  0  0  0  0  0  0  0  0  0
   22.2338   -0.5277  -11.0338 C   0  0  0  0  0  0  0  0  0  0  0  0
   21.5199    0.2581  -10.1382 C   0  0  0  0  0  0  0  0  0  0  0  0
   20.2955   -0.1051   -9.6500 C   0  0  0  0  0  0  0  0  0  0  0  0
   19.7443   -1.3035  -10.0640 C   0  0  0  0  0  0  0  0  0  0  0  0
   20.4108   -2.1274  -10.9554 C   0  0  0  0  0  0  0  0  0  0  0  0
   19.8715   -3.2884  -11.3534 F   0  0  0  0  0  0  0  0  0  0  0  0
   21.6533   -1.7071  -11.4192 C   0  0  0  0  0  0  0  0  0  0  0  0
  1  2  3  0
  2  3  1  0
  3  4  2  0
  4  5  1  0
  5  6  1  0
  5  7  2  0
  7  8  1  0
  8  9  2  0
  9 10  1  0
 10 11  1  0
 11 12  2  0
 12 13  1  0
 13 14  2  0
 14 15  1  0
 15 16  1  0
 15 17  2  0
  9  3  1  0
 17 11  1  0
M  END
$$$$
