_rank11
     RDKit          3D

 17 18  0  0  0  0  0  0  0  0999 V2000
   22.2493   -3.3150  -12.0359 N   0  0  0  0  0  0  0  0  0  0  0  0
   22.1533   -2.3233  -11.4509 C   0  0  0  0  0  0  0  0  0  0  0  0
   22.0572   -1.0753  -10.7207 C   0  0  0  0  0  0  0  0  0  0  0  0
   20.8141   -0.6001  -10.3687 C   0  0  0  0  0  0  0  0  0  0  0  0
   20.7306    0.5920   -9.6718 C   0  0  0  0  0  0  0  0  0  0  0  0
   19.0105    1.2480   -9.1857 Br  0  0  0  0  0  0  0  0  0  0  0  0
   21.8902    1.2721   -9.3482 C   0  0  0  0  0  0  0  0  0  0  0  0
   23.1399    0.8074   -9.6944 C   0  0  0  0  0  0  0  0  0  0  0  0
   23.2143   -0.3799  -10.3880 C   0  0  0  0  0  0  0  0  0  0  0  0
   24.4425   -0.8932  -10.7612 O   0  0  0  0  0  0  0  0  0  0  0  0
   25.5045   -0.8871   -9.8935 C   0  0  0  0  0  0  0  0  0  0  0  0
   26.1085   -2.0420   -9.4134 C   0  0  0  0  0  0  0  0  0  0  0  0
   27.1670   -2.0173   -8.5483 C   0  0  0  0  0  0  0  0  0  0  0  0
   27.6572   -0.7929   -8.1336 C   0  0  0  0  0  0  0  0  0  0  0  0
   27.0945    0.3912   -8.5797 C   0  0  0  0  0  0  0  0  0  0  0  0
   27.5741    1.5757   -8.1743 F   0  0  0  0  0  0  0  0  0  0  0  0
   26.0197    0.3054   -9.4588 C   0  0  0  0  0  0  0  0  0  0  0  0
  1  2  3  0
  2  3  1  0
  3  4  2  0
  4  5  1  0
  5  6  1  0
  5  7  2  0
  7  8  1  0
  8  9  2  0
  9 10  1  0
 10 11  1  0
 11 12  2  0
 12 13  1  0
 13 14  2  0
 14 15  1  0
 15 16  1  0
 15 17  2  0
  9  3  1  0
 17 11  1  0
M  END
$$$$
