_rank9
     RDKit          3D

 17 18  0  0  0  0  0  0  0  0999 V2000
   26.2665   -1.1943   -7.6655 N   0  0  0  0  0  0  0  0  0  0  0  0
   26.0307   -0.8590   -8.7458 C   0  0  0  0  0  0  0  0  0  0  0  0
   25.7165   -0.4243  -10.0919 C   0  0  0  0  0  0  0  0  0  0  0  0
   26.7418   -0.0483  -10.9301 C   0  0  0  0  0  0  0  0  0  0  0  0
   26.4338    0.3656  -12.2137 C   0  0  0  0  0  0  0  0  0  0  0  0
   27.8531    0.8853  -13.3717 Br  0  0  0  0  0  0  0  0  0  0  0  0
   25.1125    0.3911  -12.6203 C   0  0  0  0  0  0  0  0  0  0  0  0
   24.0775    0.0175  -11.7916 C   0  0  0  0  0  0  0  0  0  0  0  0
   24.3925   -0.3931  -10.5155 C   0  0  0  0  0  0  0  0  0  0  0  0
   23.3938   -0.7793   -9.6411 O   0  0  0  0  0  0  0  0  0  0  0  0
   22.0713   -0.6833   -9.9915 C   0  0  0  0  0  0  0  0  0  0  0  0
   21.3368    0.4917   -9.8972 C   0  0  0  0  0  0  0  0  0  0  0  0
   20.0185    0.5693  -10.2512 C   0  0  0  0  0  0  0  0  0  0  0  0
   19.3894   -0.5680  -10.7226 C   0  0  0  0  0  0  0  0  0  0  0  0
   20.0721   -1.7674  -10.8378 C   0  0  0  0  0  0  0  0  0  0  0  0
   19.4570   -2.8671  -11.2956 F   0  0  0  0  0  0  0  0  0  0  0  0
   21.4117   -1.7874  -10.4630 C   0  0  0  0  0  0  0  0  0  0  0  0
  1  2  3  0
  2  3  1  0
  3  4  2  0
  4  5  1  0
  5  6  1  0
  5  7  2  0
  7  8  1  0
  8  9  2  0
  9 10  1  0
 10 11  1  0
 11 12  2  0
 12 13  1  0
 13 14  2  0
 14 15  1  0
 15 16  1  0
 15 17  2  0
  9  3  1  0
 17 11  1  0
M  END
$$$$
