_rank10
     RDKit          3D

 25 28  0  0  0  0  0  0  0  0999 V2000
   27.0447    2.0397  -10.3199 F   0  0  0  0  0  0  0  0  0  0  0  0
   26.9106    0.8722   -9.6537 C   0  0  0  0  0  0  0  0  0  0  0  0
   27.7401    0.6832   -8.5626 C   0  0  0  0  0  0  0  0  0  0  0  0
   28.8966    1.9083   -8.0771 Cl  0  0  0  0  0  0  0  0  0  0  0  0
   27.6429   -0.5133   -7.8429 C   0  0  0  0  0  0  0  0  0  0  0  0
   26.7208   -1.4525   -8.2567 C   0  0  0  0  0  0  0  0  0  0  0  0
   25.8980   -1.2240   -9.3674 C   0  0  0  0  0  0  0  0  0  0  0  0
   24.7905   -2.5212   -9.7646 Cl  0  0  0  0  0  0  0  0  0  0  0  0
   25.9908   -0.0433  -10.0805 C   0  0  0  0  0  0  0  0  0  0  0  0
   25.0799    0.0991  -11.2271 C   0  0  2  0  0  0  0  0  0  0  0  0
   23.6715    0.3700  -10.9400 C   0  0  0  0  0  0  0  0  0  0  0  0
   22.6725   -0.7308  -11.0842 C   0  0  1  0  0  0  0  0  0  0  0  0
   21.2872   -0.2241  -10.9600 C   0  0  0  0  0  0  0  0  0  0  0  0
   20.5377   -0.1684  -12.1460 C   0  0  0  0  0  0  0  0  0  0  0  0
   19.2405    0.2938  -12.1195 C   0  0  0  0  0  0  0  0  0  0  0  0
   18.7019    0.6953  -10.9170 C   0  0  0  0  0  0  0  0  0  0  0  0
   19.4084    0.6538   -9.7365 C   0  0  0  0  0  0  0  0  0  0  0  0
   18.6207    1.2201   -8.0960 Br  0  0  0  0  0  0  0  0  0  0  0  0
   20.7292    0.1808   -9.7775 C   0  0  0  0  0  0  0  0  0  0  0  0
   22.8537   -1.2750  -12.4501 N   0  0  0  0  0  0  0  0  0  0  0  0
   24.2010   -1.6016  -12.7708 C   0  0  0  0  0  0  0  0  0  0  0  0
   24.6623   -2.5291  -13.6270 N   0  0  0  0  0  0  0  0  0  0  0  0
   25.9897   -2.4791  -13.5932 N   0  0  0  0  0  0  0  0  0  0  0  0
   26.3124   -1.5523  -12.7450 N   0  0  0  0  0  0  0  0  0  0  0  0
   25.2344   -0.9633  -12.1945 N   0  0  0  0  0  0  0  0  0  0  0  0
  1  2  1  0
  2  3  2  0
  3  4  1  0
  3  5  1  0
  5  6  2  0
  6  7  1  0
  7  8  1  0
  7  9  2  0
 10  9  1  1
 11 10  1  6
 11 12  1  0
 12 13  1  6
 13 14  2  0
 14 15  1  0
 15 16  2  0
 16 17  1  0
 17 18  1  0
 17 19  2  0
 12 20  1  0
 20 21  1  0
 21 22  2  0
 22 23  1  0
 23 24  2  0
 24 25  1  0
  9  2  1  0
 25 10  1  0
 19 13  1  0
 25 21  1  0
M  END
$$$$
