_rank5
     RDKit          3D

 25 28  0  0  0  0  0  0  0  0999 V2000
   25.8390   -2.1433   -9.6061 F   0  0  0  0  0  0  0  0  0  0  0  0
   26.4003   -0.9421   -9.3472 C   0  0  0  0  0  0  0  0  0  0  0  0
   27.4134   -0.9223   -8.4051 C   0  0  0  0  0  0  0  0  0  0  0  0
   27.9363   -2.3904   -7.6017 Cl  0  0  0  0  0  0  0  0  0  0  0  0
   28.0227    0.2998   -8.0981 C   0  0  0  0  0  0  0  0  0  0  0  0
   27.5828    1.4325   -8.7516 C   0  0  0  0  0  0  0  0  0  0  0  0
   26.5534    1.3716   -9.7000 C   0  0  0  0  0  0  0  0  0  0  0  0
   26.1084    2.9008  -10.4286 Cl  0  0  0  0  0  0  0  0  0  0  0  0
   25.9495    0.1664  -10.0063 C   0  0  0  0  0  0  0  0  0  0  0  0
   24.8820    0.2105  -11.0179 C   0  0  2  0  0  0  0  0  0  0  0  0
   23.5061    0.3480  -10.5409 C   0  0  0  0  0  0  0  0  0  0  0  0
   22.6071   -0.8445  -10.5522 C   0  0  1  0  0  0  0  0  0  0  0  0
   21.2094   -0.4715  -10.2389 C   0  0  0  0  0  0  0  0  0  0  0  0
   20.2537   -0.7587  -11.2267 C   0  0  0  0  0  0  0  0  0  0  0  0
   18.9300   -0.4412  -11.0169 C   0  0  0  0  0  0  0  0  0  0  0  0
   18.5697    0.1575   -9.8299 C   0  0  0  0  0  0  0  0  0  0  0  0
   19.4804    0.4528   -8.8410 C   0  0  0  0  0  0  0  0  0  0  0  0
   18.9346    1.2819   -7.2141 Br  0  0  0  0  0  0  0  0  0  0  0  0
   20.8259    0.1241   -9.0676 C   0  0  0  0  0  0  0  0  0  0  0  0
   22.6527   -1.3816  -11.9321 N   0  0  0  0  0  0  0  0  0  0  0  0
   23.9691   -1.5808  -12.4342 C   0  0  0  0  0  0  0  0  0  0  0  0
   24.3969   -2.4679  -13.3486 N   0  0  0  0  0  0  0  0  0  0  0  0
   25.7056   -2.2909  -13.4955 N   0  0  0  0  0  0  0  0  0  0  0  0
   26.0499   -1.3296  -12.6955 N   0  0  0  0  0  0  0  0  0  0  0  0
   25.0050   -0.8412  -12.0013 N   0  0  0  0  0  0  0  0  0  0  0  0
  1  2  1  0
  2  3  2  0
  3  4  1  0
  3  5  1  0
  5  6  2  0
  6  7  1  0
  7  8  1  0
  7  9  2  0
 10  9  1  1
 11 10  1  6
 11 12  1  0
 12 13  1  6
 13 14  2  0
 14 15  1  0
 15 16  2  0
 16 17  1  0
 17 18  1  0
 17 19  2  0
 12 20  1  0
 20 21  1  0
 21 22  2  0
 22 23  1  0
 23 24  2  0
 24 25  1  0
  9  2  1  0
 25 10  1  0
 19 13  1  0
 25 21  1  0
M  END
$$$$
