_rank17
     RDKit          3D

 25 28  0  0  0  0  0  0  0  0999 V2000
   23.4703   -0.8718  -11.5683 F   0  0  0  0  0  0  0  0  0  0  0  0
   23.9175   -1.2554  -10.3528 C   0  0  0  0  0  0  0  0  0  0  0  0
   23.1342   -2.1639   -9.6633 C   0  0  0  0  0  0  0  0  0  0  0  0
   21.6433   -2.7823  -10.3480 Cl  0  0  0  0  0  0  0  0  0  0  0  0
   23.5525   -2.5878   -8.3967 C   0  0  0  0  0  0  0  0  0  0  0  0
   24.7313   -2.0779   -7.8924 C   0  0  0  0  0  0  0  0  0  0  0  0
   25.4972   -1.1590   -8.6216 C   0  0  0  0  0  0  0  0  0  0  0  0
   26.9590   -0.6029   -7.8336 Cl  0  0  0  0  0  0  0  0  0  0  0  0
   25.0875   -0.7382   -9.8731 C   0  0  0  0  0  0  0  0  0  0  0  0
   25.9648    0.2251  -10.5567 C   0  0  2  0  0  0  0  0  0  0  0  0
   25.8224    1.6368  -10.2015 C   0  0  0  0  0  0  0  0  0  0  0  0
   25.1219    2.5595  -11.1441 C   0  0  1  0  0  0  0  0  0  0  0  0
   25.2591    3.9715  -10.7215 C   0  0  0  0  0  0  0  0  0  0  0  0
   26.4795    4.3249  -10.1236 C   0  0  0  0  0  0  0  0  0  0  0  0
   26.6886    5.6181   -9.6984 C   0  0  0  0  0  0  0  0  0  0  0  0
   25.6850    6.5456   -9.8710 C   0  0  0  0  0  0  0  0  0  0  0  0
   24.4774    6.2329  -10.4528 C   0  0  0  0  0  0  0  0  0  0  0  0
   23.1179    7.5507  -10.6708 Br  0  0  0  0  0  0  0  0  0  0  0  0
   24.2773    4.9116  -10.8816 C   0  0  0  0  0  0  0  0  0  0  0  0
   25.7906    2.3939  -12.4557 N   0  0  0  0  0  0  0  0  0  0  0  0
   25.9161    1.0404  -12.8764 C   0  0  0  0  0  0  0  0  0  0  0  0
   25.9728    0.5481  -14.1256 N   0  0  0  0  0  0  0  0  0  0  0  0
   26.0832   -0.7727  -14.0300 N   0  0  0  0  0  0  0  0  0  0  0  0
   26.0925   -1.0615  -12.7654 N   0  0  0  0  0  0  0  0  0  0  0  0
   25.9910    0.0334  -11.9888 N   0  0  0  0  0  0  0  0  0  0  0  0
  1  2  1  0
  2  3  2  0
  3  4  1  0
  3  5  1  0
  5  6  2  0
  6  7  1  0
  7  8  1  0
  7  9  2  0
 10  9  1  6
 11 10  1  6
 11 12  1  0
 12 13  1  1
 13 14  2  0
 14 15  1  0
 15 16  2  0
 16 17  1  0
 17 18  1  0
 17 19  2  0
 12 20  1  0
 20 21  1  0
 21 22  2  0
 22 23  1  0
 23 24  2  0
 24 25  1  0
  9  2  1  0
 25 10  1  0
 19 13  1  0
 25 21  1  0
M  END
$$$$
