_rank11
     RDKit          3D

 25 28  0  0  0  0  0  0  0  0999 V2000
   21.6657    1.3786  -10.7041 F   0  0  0  0  0  0  0  0  0  0  0  0
   20.8174    0.3671  -10.4175 C   0  0  0  0  0  0  0  0  0  0  0  0
   19.5884    0.7205   -9.8894 C   0  0  0  0  0  0  0  0  0  0  0  0
   19.1648    2.4001   -9.6181 Cl  0  0  0  0  0  0  0  0  0  0  0  0
   18.6767   -0.2925   -9.5706 C   0  0  0  0  0  0  0  0  0  0  0  0
   19.0475   -1.6018   -9.7987 C   0  0  0  0  0  0  0  0  0  0  0  0
   20.3021   -1.9196  -10.3353 C   0  0  0  0  0  0  0  0  0  0  0  0
   20.6182   -3.6285  -10.5520 Cl  0  0  0  0  0  0  0  0  0  0  0  0
   21.2051   -0.9218  -10.6517 C   0  0  0  0  0  0  0  0  0  0  0  0
   22.4922   -1.3613  -11.2128 C   0  0  2  0  0  0  0  0  0  0  0  0
   23.6547   -1.3477  -10.3251 C   0  0  0  0  0  0  0  0  0  0  0  0
   24.6733   -0.2655  -10.4729 C   0  0  1  0  0  0  0  0  0  0  0  0
   25.8699   -0.5316   -9.6431 C   0  0  0  0  0  0  0  0  0  0  0  0
   25.9812   -1.8262   -9.1110 C   0  0  0  0  0  0  0  0  0  0  0  0
   27.0627   -2.1568   -8.3249 C   0  0  0  0  0  0  0  0  0  0  0  0
   28.0211   -1.1994   -8.0757 C   0  0  0  0  0  0  0  0  0  0  0  0
   27.9430    0.0784   -8.5813 C   0  0  0  0  0  0  0  0  0  0  0  0
   29.2943    1.3699   -8.2093 Br  0  0  0  0  0  0  0  0  0  0  0  0
   26.8358    0.4021   -9.3807 C   0  0  0  0  0  0  0  0  0  0  0  0
   25.0780   -0.2727  -11.8980 N   0  0  0  0  0  0  0  0  0  0  0  0
   23.9872   -0.2397  -12.8113 C   0  0  0  0  0  0  0  0  0  0  0  0
   23.9474    0.2591  -14.0586 N   0  0  0  0  0  0  0  0  0  0  0  0
   22.7170    0.0729  -14.5243 N   0  0  0  0  0  0  0  0  0  0  0  0
   22.0425   -0.5179  -13.5870 N   0  0  0  0  0  0  0  0  0  0  0  0
   22.7836   -0.7424  -12.4858 N   0  0  0  0  0  0  0  0  0  0  0  0
  1  2  1  0
  2  3  2  0
  3  4  1  0
  3  5  1  0
  5  6  2  0
  6  7  1  0
  7  8  1  0
  7  9  2  0
 10  9  1  1
 11 10  1  6
 11 12  1  0
 12 13  1  1
 13 14  2  0
 14 15  1  0
 15 16  2  0
 16 17  1  0
 17 18  1  0
 17 19  2  0
 12 20  1  0
 20 21  1  0
 21 22  2  0
 22 23  1  0
 23 24  2  0
 24 25  1  0
  9  2  1  0
 25 10  1  0
 19 13  1  0
 25 21  1  0
M  END
$$$$
