_rank15
     RDKit          3D

 25 28  0  0  0  0  0  0  0  0999 V2000
   19.7442   -2.9773   -9.8025 F   0  0  0  0  0  0  0  0  0  0  0  0
   19.7529   -1.6271   -9.8423 C   0  0  0  0  0  0  0  0  0  0  0  0
   18.6169   -0.9867   -9.3800 C   0  0  0  0  0  0  0  0  0  0  0  0
   17.2465   -1.8945   -8.7699 Cl  0  0  0  0  0  0  0  0  0  0  0  0
   18.5753    0.4121   -9.4061 C   0  0  0  0  0  0  0  0  0  0  0  0
   19.6736    1.0901   -9.8937 C   0  0  0  0  0  0  0  0  0  0  0  0
   20.8062    0.4054  -10.3533 C   0  0  0  0  0  0  0  0  0  0  0  0
   22.1073    1.4151  -10.9490 Cl  0  0  0  0  0  0  0  0  0  0  0  0
   20.8511   -0.9761  -10.3287 C   0  0  0  0  0  0  0  0  0  0  0  0
   22.0870   -1.5973  -10.8300 C   0  0  2  0  0  0  0  0  0  0  0  0
   23.2792   -1.5023   -9.9879 C   0  0  0  0  0  0  0  0  0  0  0  0
   24.3580   -0.5374  -10.3563 C   0  0  1  0  0  0  0  0  0  0  0  0
   25.5645   -0.7296   -9.5205 C   0  0  0  0  0  0  0  0  0  0  0  0
   25.9915   -2.0552   -9.3419 C   0  0  0  0  0  0  0  0  0  0  0  0
   27.1043   -2.3227   -8.5757 C   0  0  0  0  0  0  0  0  0  0  0  0
   27.7805   -1.2723   -7.9955 C   0  0  0  0  0  0  0  0  0  0  0  0
   27.3892    0.0383   -8.1500 C   0  0  0  0  0  0  0  0  0  0  0  0
   28.3570    1.4593   -7.3276 Br  0  0  0  0  0  0  0  0  0  0  0  0
   26.2536    0.2969   -8.9332 C   0  0  0  0  0  0  0  0  0  0  0  0
   24.7098   -0.8312  -11.7650 N   0  0  0  0  0  0  0  0  0  0  0  0
   23.5912   -0.8900  -12.6425 C   0  0  0  0  0  0  0  0  0  0  0  0
   23.5380   -0.6247  -13.9589 N   0  0  0  0  0  0  0  0  0  0  0  0
   22.2823   -0.8077  -14.3530 N   0  0  0  0  0  0  0  0  0  0  0  0
   21.6061   -1.1708  -13.3073 N   0  0  0  0  0  0  0  0  0  0  0  0
   22.3707   -1.2415  -12.2016 N   0  0  0  0  0  0  0  0  0  0  0  0
  1  2  1  0
  2  3  2  0
  3  4  1  0
  3  5  1  0
  5  6  2  0
  6  7  1  0
  7  8  1  0
  7  9  2  0
 10  9  1  1
 11 10  1  6
 11 12  1  0
 12 13  1  1
 13 14  2  0
 14 15  1  0
 15 16  2  0
 16 17  1  0
 17 18  1  0
 17 19  2  0
 12 20  1  0
 20 21  1  0
 21 22  2  0
 22 23  1  0
 23 24  2  0
 24 25  1  0
  9  2  1  0
 25 10  1  0
 19 13  1  0
 25 21  1  0
M  END
$$$$
