_rank12
     RDKit          3D

 25 28  0  0  0  0  0  0  0  0999 V2000
   21.4927    1.3485  -10.5261 F   0  0  0  0  0  0  0  0  0  0  0  0
   20.7225    0.2868  -10.2032 C   0  0  0  0  0  0  0  0  0  0  0  0
   19.5553    0.5563   -9.5110 C   0  0  0  0  0  0  0  0  0  0  0  0
   19.1080    2.1979   -9.0876 Cl  0  0  0  0  0  0  0  0  0  0  0  0
   18.7261   -0.5116   -9.1488 C   0  0  0  0  0  0  0  0  0  0  0  0
   19.1130   -1.7886   -9.5001 C   0  0  0  0  0  0  0  0  0  0  0  0
   20.3033   -2.0210  -10.2015 C   0  0  0  0  0  0  0  0  0  0  0  0
   20.6515   -3.6995  -10.5597 Cl  0  0  0  0  0  0  0  0  0  0  0  0
   21.1246   -0.9688  -10.5614 C   0  0  0  0  0  0  0  0  0  0  0  0
   22.3486   -1.3197  -11.2985 C   0  0  2  0  0  0  0  0  0  0  0  0
   23.6145   -1.2676  -10.5674 C   0  0  0  0  0  0  0  0  0  0  0  0
   24.5484   -0.1268  -10.8057 C   0  0  1  0  0  0  0  0  0  0  0  0
   25.8548   -0.3502  -10.1465 C   0  0  0  0  0  0  0  0  0  0  0  0
   26.8194   -1.0407  -10.8976 C   0  0  0  0  0  0  0  0  0  0  0  0
   28.0610   -1.2934  -10.3578 C   0  0  0  0  0  0  0  0  0  0  0  0
   28.3314   -0.8583   -9.0792 C   0  0  0  0  0  0  0  0  0  0  0  0
   27.4093   -0.1791   -8.3156 C   0  0  0  0  0  0  0  0  0  0  0  0
   27.8291    0.4038   -6.5504 Br  0  0  0  0  0  0  0  0  0  0  0  0
   26.1479    0.0718   -8.8778 C   0  0  0  0  0  0  0  0  0  0  0  0
   24.7641   -0.0701  -12.2702 N   0  0  0  0  0  0  0  0  0  0  0  0
   23.5636   -0.0709  -13.0341 C   0  0  0  0  0  0  0  0  0  0  0  0
   23.3363    0.4609  -14.2472 N   0  0  0  0  0  0  0  0  0  0  0  0
   22.0669    0.2205  -14.5576 N   0  0  0  0  0  0  0  0  0  0  0  0
   21.5513   -0.4339  -13.5634 N   0  0  0  0  0  0  0  0  0  0  0  0
   22.4398   -0.6488  -12.5752 N   0  0  0  0  0  0  0  0  0  0  0  0
  1  2  1  0
  2  3  2  0
  3  4  1  0
  3  5  1  0
  5  6  2  0
  6  7  1  0
  7  8  1  0
  7  9  2  0
 10  9  1  1
 11 10  1  6
 11 12  1  0
 12 13  1  1
 13 14  2  0
 14 15  1  0
 15 16  2  0
 16 17  1  0
 17 18  1  0
 17 19  2  0
 12 20  1  0
 20 21  1  0
 21 22  2  0
 22 23  1  0
 23 24  2  0
 24 25  1  0
  9  2  1  0
 25 10  1  0
 19 13  1  0
 25 21  1  0
M  END
$$$$
