_rank13
     RDKit          3D

 25 28  0  0  0  0  0  0  0  0999 V2000
   19.7249   -1.9287   -8.4592 F   0  0  0  0  0  0  0  0  0  0  0  0
   19.7947   -0.7374   -9.0921 C   0  0  0  0  0  0  0  0  0  0  0  0
   18.8074    0.1833   -8.7894 C   0  0  0  0  0  0  0  0  0  0  0  0
   17.5406   -0.1886   -7.6356 Cl  0  0  0  0  0  0  0  0  0  0  0  0
   18.8333    1.4307   -9.4239 C   0  0  0  0  0  0  0  0  0  0  0  0
   19.8462    1.6850  -10.3256 C   0  0  0  0  0  0  0  0  0  0  0  0
   20.8285    0.7261  -10.6057 C   0  0  0  0  0  0  0  0  0  0  0  0
   22.0355    1.2047  -11.7810 Cl  0  0  0  0  0  0  0  0  0  0  0  0
   20.8065   -0.5068   -9.9807 C   0  0  0  0  0  0  0  0  0  0  0  0
   21.8848   -1.4402  -10.3420 C   0  0  2  0  0  0  0  0  0  0  0  0
   23.1804   -1.2598   -9.6875 C   0  0  0  0  0  0  0  0  0  0  0  0
   24.3062   -0.6468  -10.4538 C   0  0  1  0  0  0  0  0  0  0  0  0
   25.5816   -0.7384   -9.7082 C   0  0  0  0  0  0  0  0  0  0  0  0
   25.8262   -1.9503   -9.0427 C   0  0  0  0  0  0  0  0  0  0  0  0
   26.9882   -2.1180   -8.3227 C   0  0  0  0  0  0  0  0  0  0  0  0
   27.8941   -1.0817   -8.2711 C   0  0  0  0  0  0  0  0  0  0  0  0
   27.6858    0.1188   -8.9113 C   0  0  0  0  0  0  0  0  0  0  0  0
   28.9688    1.5247   -8.8115 Br  0  0  0  0  0  0  0  0  0  0  0  0
   26.4976    0.2766   -9.6415 C   0  0  0  0  0  0  0  0  0  0  0  0
   24.4328   -1.4356  -11.7014 N   0  0  0  0  0  0  0  0  0  0  0  0
   23.2092   -1.6051  -12.4076 C   0  0  0  0  0  0  0  0  0  0  0  0
   23.0143   -1.7801  -13.7258 N   0  0  0  0  0  0  0  0  0  0  0  0
   21.7050   -1.8862  -13.9256 N   0  0  0  0  0  0  0  0  0  0  0  0
   21.1348   -1.7786  -12.7654 N   0  0  0  0  0  0  0  0  0  0  0  0
   22.0249   -1.6007  -11.7713 N   0  0  0  0  0  0  0  0  0  0  0  0
  1  2  1  0
  2  3  2  0
  3  4  1  0
  3  5  1  0
  5  6  2  0
  6  7  1  0
  7  8  1  0
  7  9  2  0
 10  9  1  6
 11 10  1  6
 11 12  1  0
 12 13  1  1
 13 14  2  0
 14 15  1  0
 15 16  2  0
 16 17  1  0
 17 18  1  0
 17 19  2  0
 12 20  1  0
 20 21  1  0
 21 22  2  0
 22 23  1  0
 23 24  2  0
 24 25  1  0
  9  2  1  0
 25 10  1  0
 19 13  1  0
 25 21  1  0
M  END
$$$$
