_rank1
     RDKit          3D

 19 20  0  0  0  0  0  0  0  0999 V2000
   18.1785    1.9670   -9.2832 N   0  0  0  0  0  0  0  0  0  0  0  0
   18.9979    1.1090   -9.6873 C   0  0  0  0  0  0  0  0  0  0  0  0
   19.9407    0.1479  -10.1307 C   0  0  0  0  0  0  0  0  0  0  0  0
   19.6129   -1.2243   -9.8936 C   0  0  0  0  0  0  0  0  0  0  0  0
   20.6008   -2.1812  -10.3034 C   0  0  0  0  0  0  0  0  0  0  0  0
   21.7085   -1.8760  -10.8407 C   0  0  0  0  0  0  0  0  0  0  0  0
   22.1149   -0.5204  -11.1160 C   0  0  0  0  0  0  0  0  0  0  0  0
   23.2846   -0.2539  -11.6768 O   0  0  0  0  0  0  0  0  0  0  0  0
   24.4946   -0.0274  -10.8632 C   0  0  0  0  0  0  0  0  0  0  0  0
   24.2458   -0.3276   -9.6681 C   0  0  0  0  0  0  0  0  0  0  0  0
   25.3172   -0.2397   -8.7075 C   0  0  0  0  0  0  0  0  0  0  0  0
   26.5838    0.1829   -9.1140 C   0  0  0  0  0  0  0  0  0  0  0  0
   27.7199    0.1532   -8.2772 C   0  0  0  0  0  0  0  0  0  0  0  0
   27.4307   -0.2247   -6.9785 O   0  0  0  0  0  0  0  0  0  0  0  0
   29.0216    0.4046   -8.4082 O   0  0  0  0  0  0  0  0  0  0  0  0
   26.6914    0.5111  -10.5339 C   0  0  0  0  0  0  0  0  0  0  0  0
   25.6195    0.4117  -11.4906 C   0  0  0  0  0  0  0  0  0  0  0  0
   25.8507    0.6025  -12.7900 N   0  0  0  0  0  0  0  0  0  0  0  0
   21.1750    0.4267  -10.7272 C   0  0  0  0  0  0  0  0  0  0  0  0
  1  2  3  0
  2  3  1  0
  3  4  2  0
  4  5  1  0
  5  6  2  0
  6  7  1  0
  7  8  1  0
  8  9  1  0
  9 10  2  0
 10 11  1  0
 11 12  2  0
 12 13  1  0
 13 14  2  0
 13 15  1  0
 12 16  1  0
 16 17  2  0
 17 18  1  0
  7 19  2  0
 19  3  1  0
 17  9  1  0
M  END
$$$$
