_rank2
     RDKit          3D

 19 20  0  0  0  0  0  0  0  0999 V2000
   18.2284    1.7160   -9.1336 N   0  0  0  0  0  0  0  0  0  0  0  0
   19.0213    0.8856   -9.6361 C   0  0  0  0  0  0  0  0  0  0  0  0
   19.9281   -0.0365  -10.2163 C   0  0  0  0  0  0  0  0  0  0  0  0
   19.5664   -1.4187  -10.1441 C   0  0  0  0  0  0  0  0  0  0  0  0
   20.5190   -2.3420  -10.6915 C   0  0  0  0  0  0  0  0  0  0  0  0
   21.6245   -2.0006  -11.2114 C   0  0  0  0  0  0  0  0  0  0  0  0
   22.0635   -0.6321  -11.3252 C   0  0  0  0  0  0  0  0  0  0  0  0
   23.2295   -0.3278  -11.8746 O   0  0  0  0  0  0  0  0  0  0  0  0
   24.4351   -0.1115  -11.0517 C   0  0  0  0  0  0  0  0  0  0  0  0
   24.1805   -0.4284   -9.8622 C   0  0  0  0  0  0  0  0  0  0  0  0
   25.2469   -0.3528   -8.8949 C   0  0  0  0  0  0  0  0  0  0  0  0
   26.5151    0.0765   -9.2891 C   0  0  0  0  0  0  0  0  0  0  0  0
   27.6470    0.0362   -8.4470 C   0  0  0  0  0  0  0  0  0  0  0  0
   27.3426    0.2459   -7.1141 O   0  0  0  0  0  0  0  0  0  0  0  0
   28.9577   -0.1469   -8.6003 O   0  0  0  0  0  0  0  0  0  0  0  0
   26.6297    0.4244  -10.7037 C   0  0  0  0  0  0  0  0  0  0  0  0
   25.5627    0.3373  -11.6672 C   0  0  0  0  0  0  0  0  0  0  0  0
   25.8004    0.5463  -12.9626 N   0  0  0  0  0  0  0  0  0  0  0  0
   21.1583    0.2828  -10.8010 C   0  0  0  0  0  0  0  0  0  0  0  0
  1  2  3  0
  2  3  1  0
  3  4  2  0
  4  5  1  0
  5  6  2  0
  6  7  1  0
  7  8  1  0
  8  9  1  0
  9 10  2  0
 10 11  1  0
 11 12  2  0
 12 13  1  0
 13 14  2  0
 13 15  1  0
 12 16  1  0
 16 17  2  0
 17 18  1  0
  7 19  2  0
 19  3  1  0
 17  9  1  0
M  END
$$$$
