_rank5
     RDKit          3D

 19 20  0  0  0  0  0  0  0  0999 V2000
   17.7564    1.7977  -10.1184 N   0  0  0  0  0  0  0  0  0  0  0  0
   18.6669    0.9482  -10.2604 C   0  0  0  0  0  0  0  0  0  0  0  0
   19.7113    0.0043  -10.4261 C   0  0  0  0  0  0  0  0  0  0  0  0
   19.4748   -1.3072   -9.9060 C   0  0  0  0  0  0  0  0  0  0  0  0
   20.5613   -2.2355  -10.0377 C   0  0  0  0  0  0  0  0  0  0  0  0
   21.6781   -1.9544  -10.5694 C   0  0  0  0  0  0  0  0  0  0  0  0
   21.9968   -0.6601  -11.1186 C   0  0  0  0  0  0  0  0  0  0  0  0
   23.1800   -0.4161  -11.6611 O   0  0  0  0  0  0  0  0  0  0  0  0
   24.3783   -0.1972  -10.8283 C   0  0  0  0  0  0  0  0  0  0  0  0
   24.1599   -0.6418   -9.6729 C   0  0  0  0  0  0  0  0  0  0  0  0
   25.2306   -0.5857   -8.7090 C   0  0  0  0  0  0  0  0  0  0  0  0
   26.4622   -0.0360   -9.0677 C   0  0  0  0  0  0  0  0  0  0  0  0
   27.6044   -0.0788   -8.2397 C   0  0  0  0  0  0  0  0  0  0  0  0
   28.7378    0.4301   -8.8476 O   0  0  0  0  0  0  0  0  0  0  0  0
   27.8867   -0.4946   -7.0059 O   0  0  0  0  0  0  0  0  0  0  0  0
   26.5361    0.4511  -10.4434 C   0  0  0  0  0  0  0  0  0  0  0  0
   25.4657    0.3832  -11.4047 C   0  0  0  0  0  0  0  0  0  0  0  0
   25.6731    0.7294  -12.6757 N   0  0  0  0  0  0  0  0  0  0  0  0
   20.9603    0.2585  -11.0027 C   0  0  0  0  0  0  0  0  0  0  0  0
  1  2  3  0
  2  3  1  0
  3  4  2  0
  4  5  1  0
  5  6  2  0
  6  7  1  0
  7  8  1  0
  8  9  1  0
  9 10  2  0
 10 11  1  0
 11 12  2  0
 12 13  1  0
 13 14  2  0
 13 15  1  0
 12 16  1  0
 16 17  2  0
 17 18  1  0
  7 19  2  0
 19  3  1  0
 17  9  1  0
M  END
$$$$
