_rank3
     RDKit          3D

 19 20  0  0  0  0  0  0  0  0999 V2000
   18.4249    2.1026   -9.1136 N   0  0  0  0  0  0  0  0  0  0  0  0
   19.1292    1.1786   -9.5839 C   0  0  0  0  0  0  0  0  0  0  0  0
   19.9095    0.1297  -10.1316 C   0  0  0  0  0  0  0  0  0  0  0  0
   19.3625   -1.1888  -10.0376 C   0  0  0  0  0  0  0  0  0  0  0  0
   20.1876   -2.2444  -10.5518 C   0  0  0  0  0  0  0  0  0  0  0  0
   21.3356   -2.0674  -11.0612 C   0  0  0  0  0  0  0  0  0  0  0  0
   21.9580   -0.7739  -11.1954 C   0  0  0  0  0  0  0  0  0  0  0  0
   23.1613   -0.6425  -11.7326 O   0  0  0  0  0  0  0  0  0  0  0  0
   24.3379   -0.2990  -10.9109 C   0  0  0  0  0  0  0  0  0  0  0  0
   24.1023   -0.6002   -9.7134 C   0  0  0  0  0  0  0  0  0  0  0  0
   25.1510   -0.4043   -8.7438 C   0  0  0  0  0  0  0  0  0  0  0  0
   26.3809    0.1197   -9.1448 C   0  0  0  0  0  0  0  0  0  0  0  0
   27.5057    0.2019   -8.2963 C   0  0  0  0  0  0  0  0  0  0  0  0
   27.1793    0.1607   -6.9529 O   0  0  0  0  0  0  0  0  0  0  0  0
   28.8239    0.3182   -8.4502 O   0  0  0  0  0  0  0  0  0  0  0  0
   26.4761    0.4328  -10.5690 C   0  0  0  0  0  0  0  0  0  0  0  0
   25.4277    0.2256  -11.5345 C   0  0  0  0  0  0  0  0  0  0  0  0
   25.6564    0.4146  -12.8346 N   0  0  0  0  0  0  0  0  0  0  0  0
   21.1789    0.2665  -10.7034 C   0  0  0  0  0  0  0  0  0  0  0  0
  1  2  3  0
  2  3  1  0
  3  4  2  0
  4  5  1  0
  5  6  2  0
  6  7  1  0
  7  8  1  0
  8  9  1  0
  9 10  2  0
 10 11  1  0
 11 12  2  0
 12 13  1  0
 13 14  2  0
 13 15  1  0
 12 16  1  0
 16 17  2  0
 17 18  1  0
  7 19  2  0
 19  3  1  0
 17  9  1  0
M  END
$$$$
