_rank14
     RDKit          3D

 19 20  0  0  0  0  0  0  0  0999 V2000
   17.5094    1.2453  -10.0240 N   0  0  0  0  0  0  0  0  0  0  0  0
   18.5914    0.6216  -10.1300 C   0  0  0  0  0  0  0  0  0  0  0  0
   19.8059   -0.1012  -10.2381 C   0  0  0  0  0  0  0  0  0  0  0  0
   19.8343   -1.3959   -9.6304 C   0  0  0  0  0  0  0  0  0  0  0  0
   21.0866   -2.0928   -9.7056 C   0  0  0  0  0  0  0  0  0  0  0  0
   22.1282   -1.6284  -10.2608 C   0  0  0  0  0  0  0  0  0  0  0  0
   22.1840   -0.3358  -10.8969 C   0  0  0  0  0  0  0  0  0  0  0  0
   23.2982    0.1052  -11.4609 O   0  0  0  0  0  0  0  0  0  0  0  0
   24.5825    0.1016  -10.7341 C   0  0  0  0  0  0  0  0  0  0  0  0
   24.3622   -0.1169   -9.5159 C   0  0  0  0  0  0  0  0  0  0  0  0
   25.4936   -0.2252   -8.6289 C   0  0  0  0  0  0  0  0  0  0  0  0
   26.7877   -0.0742   -9.1296 C   0  0  0  0  0  0  0  0  0  0  0  0
   27.9503   -0.3135   -8.3661 C   0  0  0  0  0  0  0  0  0  0  0  0
   27.6805   -0.6370   -7.0487 O   0  0  0  0  0  0  0  0  0  0  0  0
   29.2651   -0.3029   -8.5813 O   0  0  0  0  0  0  0  0  0  0  0  0
   26.8599    0.1951  -10.5640 C   0  0  0  0  0  0  0  0  0  0  0  0
   25.7260    0.2924  -11.4466 C   0  0  0  0  0  0  0  0  0  0  0  0
   25.9000    0.4051  -12.7639 N   0  0  0  0  0  0  0  0  0  0  0  0
   20.9828    0.3607  -10.8370 C   0  0  0  0  0  0  0  0  0  0  0  0
  1  2  3  0
  2  3  1  0
  3  4  2  0
  4  5  1  0
  5  6  2  0
  6  7  1  0
  7  8  1  0
  8  9  1  0
  9 10  2  0
 10 11  1  0
 11 12  2  0
 12 13  1  0
 13 14  2  0
 13 15  1  0
 12 16  1  0
 16 17  2  0
 17 18  1  0
  7 19  2  0
 19  3  1  0
 17  9  1  0
M  END
$$$$
