_rank12
     RDKit          3D

 19 20  0  0  0  0  0  0  0  0999 V2000
   17.7353    1.4372   -9.4091 N   0  0  0  0  0  0  0  0  0  0  0  0
   18.6970    0.7444   -9.8165 C   0  0  0  0  0  0  0  0  0  0  0  0
   19.7982   -0.0205  -10.2762 C   0  0  0  0  0  0  0  0  0  0  0  0
   19.6806   -1.4416  -10.1613 C   0  0  0  0  0  0  0  0  0  0  0  0
   20.8242   -2.1982  -10.5847 C   0  0  0  0  0  0  0  0  0  0  0  0
   21.8927   -1.6832  -11.0340 C   0  0  0  0  0  0  0  0  0  0  0  0
   22.0921   -0.2632  -11.1837 C   0  0  0  0  0  0  0  0  0  0  0  0
   23.2290    0.2252  -11.6557 O   0  0  0  0  0  0  0  0  0  0  0  0
   24.4810    0.1495  -10.8784 C   0  0  0  0  0  0  0  0  0  0  0  0
   24.2018    0.1474   -9.6527 C   0  0  0  0  0  0  0  0  0  0  0  0
   25.2835    0.0144   -8.7090 C   0  0  0  0  0  0  0  0  0  0  0  0
   26.5975   -0.0935   -9.1668 C   0  0  0  0  0  0  0  0  0  0  0  0
   27.6942   -0.3774   -8.3249 C   0  0  0  0  0  0  0  0  0  0  0  0
   28.9036   -0.4044   -8.9955 O   0  0  0  0  0  0  0  0  0  0  0  0
   27.8751   -0.6384   -7.0311 O   0  0  0  0  0  0  0  0  0  0  0  0
   26.7431   -0.0529  -10.6202 C   0  0  0  0  0  0  0  0  0  0  0  0
   25.6572    0.0703  -11.5583 C   0  0  0  0  0  0  0  0  0  0  0  0
   25.8777   -0.0393  -12.8688 N   0  0  0  0  0  0  0  0  0  0  0  0
   20.9984    0.4929  -10.7792 C   0  0  0  0  0  0  0  0  0  0  0  0
  1  2  3  0
  2  3  1  0
  3  4  2  0
  4  5  1  0
  5  6  2  0
  6  7  1  0
  7  8  1  0
  8  9  1  0
  9 10  2  0
 10 11  1  0
 11 12  2  0
 12 13  1  0
 13 14  2  0
 13 15  1  0
 12 16  1  0
 16 17  2  0
 17 18  1  0
  7 19  2  0
 19  3  1  0
 17  9  1  0
M  END
$$$$
