_rank17
     RDKit          3D

 19 20  0  0  0  0  0  0  0  0999 V2000
   17.5853   -2.0813  -11.3888 N   0  0  0  0  0  0  0  0  0  0  0  0
   18.7183   -1.6209  -11.1143 C   0  0  0  0  0  0  0  0  0  0  0  0
   19.9913   -1.0790  -10.8064 C   0  0  0  0  0  0  0  0  0  0  0  0
   20.0531    0.3377  -10.6174 C   0  0  0  0  0  0  0  0  0  0  0  0
   21.3577    0.8756  -10.3560 C   0  0  0  0  0  0  0  0  0  0  0  0
   22.4158    0.1791  -10.2920 C   0  0  0  0  0  0  0  0  0  0  0  0
   22.4409   -1.2516  -10.4682 C   0  0  0  0  0  0  0  0  0  0  0  0
   23.5738   -1.9335  -10.3946 O   0  0  0  0  0  0  0  0  0  0  0  0
   24.8797   -1.2506  -10.3183 C   0  0  0  0  0  0  0  0  0  0  0  0
   24.8442   -0.2191  -11.0359 C   0  0  0  0  0  0  0  0  0  0  0  0
   26.0048    0.6360  -11.0556 C   0  0  0  0  0  0  0  0  0  0  0  0
   27.1300    0.2999  -10.3013 C   0  0  0  0  0  0  0  0  0  0  0  0
   28.2444    1.1516  -10.1443 C   0  0  0  0  0  0  0  0  0  0  0  0
   27.9398    2.4879  -10.3300 O   0  0  0  0  0  0  0  0  0  0  0  0
   29.5391    1.0052   -9.8661 O   0  0  0  0  0  0  0  0  0  0  0  0
   27.0073   -0.9425   -9.5419 C   0  0  0  0  0  0  0  0  0  0  0  0
   25.8412   -1.7874   -9.5188 C   0  0  0  0  0  0  0  0  0  0  0  0
   25.7749   -2.8287   -8.6885 N   0  0  0  0  0  0  0  0  0  0  0  0
   21.1887   -1.7977  -10.7239 C   0  0  0  0  0  0  0  0  0  0  0  0
  1  2  3  0
  2  3  1  0
  3  4  2  0
  4  5  1  0
  5  6  2  0
  6  7  1  0
  7  8  1  0
  8  9  1  0
  9 10  2  0
 10 11  1  0
 11 12  2  0
 12 13  1  0
 13 14  2  0
 13 15  1  0
 12 16  1  0
 16 17  2  0
 17 18  1  0
  7 19  2  0
 19  3  1  0
 17  9  1  0
M  END
$$$$
