_rank11
     RDKit          3D

 19 20  0  0  0  0  0  0  0  0999 V2000
   17.8849   -3.3224  -10.8501 N   0  0  0  0  0  0  0  0  0  0  0  0
   18.7273   -2.3960  -10.7939 C   0  0  0  0  0  0  0  0  0  0  0  0
   19.6744   -1.3423  -10.7519 C   0  0  0  0  0  0  0  0  0  0  0  0
   19.2259   -0.1028  -10.1961 C   0  0  0  0  0  0  0  0  0  0  0  0
   20.1817    0.9677  -10.2073 C   0  0  0  0  0  0  0  0  0  0  0  0
   21.3573    0.8684  -10.6730 C   0  0  0  0  0  0  0  0  0  0  0  0
   21.8878   -0.3427  -11.2478 C   0  0  0  0  0  0  0  0  0  0  0  0
   23.1227   -0.3941  -11.7237 O   0  0  0  0  0  0  0  0  0  0  0  0
   24.2886   -0.0840  -10.8741 C   0  0  0  0  0  0  0  0  0  0  0  0
   24.0378   -0.4325   -9.6926 C   0  0  0  0  0  0  0  0  0  0  0  0
   25.0741   -0.2758   -8.7027 C   0  0  0  0  0  0  0  0  0  0  0  0
   26.3089    0.2632   -9.0668 C   0  0  0  0  0  0  0  0  0  0  0  0
   27.4228    0.3112   -8.2015 C   0  0  0  0  0  0  0  0  0  0  0  0
   28.5281    0.9192   -8.7687 O   0  0  0  0  0  0  0  0  0  0  0  0
   27.6988   -0.0885   -6.9609 O   0  0  0  0  0  0  0  0  0  0  0  0
   26.4222    0.6328  -10.4760 C   0  0  0  0  0  0  0  0  0  0  0  0
   25.3862    0.4645  -11.4623 C   0  0  0  0  0  0  0  0  0  0  0  0
   25.6315    0.7050  -12.7509 N   0  0  0  0  0  0  0  0  0  0  0  0
   20.9806   -1.3955  -11.2500 C   0  0  0  0  0  0  0  0  0  0  0  0
  1  2  3  0
  2  3  1  0
  3  4  2  0
  4  5  1  0
  5  6  2  0
  6  7  1  0
  7  8  1  0
  8  9  1  0
  9 10  2  0
 10 11  1  0
 11 12  2  0
 12 13  1  0
 13 14  2  0
 13 15  1  0
 12 16  1  0
 16 17  2  0
 17 18  1  0
  7 19  2  0
 19  3  1  0
 17  9  1  0
M  END
$$$$
