_rank7
     RDKit          3D

 19 20  0  0  0  0  0  0  0  0999 V2000
   17.7717    1.2846   -9.2679 N   0  0  0  0  0  0  0  0  0  0  0  0
   18.7491    0.6299   -9.7005 C   0  0  0  0  0  0  0  0  0  0  0  0
   19.8404   -0.1210  -10.2047 C   0  0  0  0  0  0  0  0  0  0  0  0
   19.7223   -1.5449  -10.1337 C   0  0  0  0  0  0  0  0  0  0  0  0
   20.8566   -2.2889  -10.6022 C   0  0  0  0  0  0  0  0  0  0  0  0
   21.9177   -1.7608  -11.0539 C   0  0  0  0  0  0  0  0  0  0  0  0
   22.1170   -0.3370  -11.1611 C   0  0  0  0  0  0  0  0  0  0  0  0
   23.2460    0.1651  -11.6377 O   0  0  0  0  0  0  0  0  0  0  0  0
   24.4992    0.1155  -10.8602 C   0  0  0  0  0  0  0  0  0  0  0  0
   24.2192   -0.0005   -9.6402 C   0  0  0  0  0  0  0  0  0  0  0  0
   25.3062   -0.1316   -8.7023 C   0  0  0  0  0  0  0  0  0  0  0  0
   26.6252   -0.1135   -9.1583 C   0  0  0  0  0  0  0  0  0  0  0  0
   27.7376   -0.3858   -8.3335 C   0  0  0  0  0  0  0  0  0  0  0  0
   28.9329    0.0647   -8.8640 O   0  0  0  0  0  0  0  0  0  0  0  0
   27.9458   -0.9800   -7.1594 O   0  0  0  0  0  0  0  0  0  0  0  0
   26.7695    0.0491  -10.6033 C   0  0  0  0  0  0  0  0  0  0  0  0
   25.6789    0.1698  -11.5363 C   0  0  0  0  0  0  0  0  0  0  0  0
   25.9083    0.1771  -12.8499 N   0  0  0  0  0  0  0  0  0  0  0  0
   21.0322    0.4069  -10.7125 C   0  0  0  0  0  0  0  0  0  0  0  0
  1  2  3  0
  2  3  1  0
  3  4  2  0
  4  5  1  0
  5  6  2  0
  6  7  1  0
  7  8  1  0
  8  9  1  0
  9 10  2  0
 10 11  1  0
 11 12  2  0
 12 13  1  0
 13 14  2  0
 13 15  1  0
 12 16  1  0
 16 17  2  0
 17 18  1  0
  7 19  2  0
 19  3  1  0
 17  9  1  0
M  END
$$$$
