_rank20
     RDKit          3D

 19 20  0  0  0  0  0  0  0  0999 V2000
   29.7320    1.6131   -8.5132 N   0  0  0  0  0  0  0  0  0  0  0  0
   28.7582    0.8741   -8.7899 C   0  0  0  0  0  0  0  0  0  0  0  0
   27.6455    0.0568   -9.1106 C   0  0  0  0  0  0  0  0  0  0  0  0
   27.5069   -1.1548   -8.3628 C   0  0  0  0  0  0  0  0  0  0  0  0
   26.4038   -1.9943   -8.7344 C   0  0  0  0  0  0  0  0  0  0  0  0
   25.5824   -1.7224   -9.6619 C   0  0  0  0  0  0  0  0  0  0  0  0
   25.6495   -0.5241  -10.4608 C   0  0  0  0  0  0  0  0  0  0  0  0
   24.7681   -0.2878  -11.4206 O   0  0  0  0  0  0  0  0  0  0  0  0
   23.3946   -0.8228  -11.3532 C   0  0  0  0  0  0  0  0  0  0  0  0
   22.9555   -0.6759  -10.1845 C   0  0  0  0  0  0  0  0  0  0  0  0
   21.5976   -1.0770   -9.9127 C   0  0  0  0  0  0  0  0  0  0  0  0
   20.8159   -1.6235  -10.9316 C   0  0  0  0  0  0  0  0  0  0  0  0
   19.4390   -1.9006  -10.7927 C   0  0  0  0  0  0  0  0  0  0  0  0
   18.8301   -1.1539   -9.8004 O   0  0  0  0  0  0  0  0  0  0  0  0
   18.5550   -2.7123  -11.3711 O   0  0  0  0  0  0  0  0  0  0  0  0
   21.4904   -1.7409  -12.2226 C   0  0  0  0  0  0  0  0  0  0  0  0
   22.8444   -1.3292  -12.4901 C   0  0  0  0  0  0  0  0  0  0  0  0
   23.3263   -1.3505  -13.7334 N   0  0  0  0  0  0  0  0  0  0  0  0
   26.7107    0.3064  -10.1211 C   0  0  0  0  0  0  0  0  0  0  0  0
  1  2  3  0
  2  3  1  0
  3  4  2  0
  4  5  1  0
  5  6  2  0
  6  7  1  0
  7  8  1  0
  8  9  1  0
  9 10  2  0
 10 11  1  0
 11 12  2  0
 12 13  1  0
 13 14  2  0
 13 15  1  0
 12 16  1  0
 16 17  2  0
 17 18  1  0
  7 19  2  0
 19  3  1  0
 17  9  1  0
M  END
$$$$
