_rank6
     RDKit          3D

 17 18  0  0  0  0  0  0  0  0999 V2000
   19.4119   -3.0252  -10.4087 C   0  0  0  0  0  0  0  0  0  0  0  0
   20.5053   -2.5408  -11.1495 O   0  0  0  0  0  0  0  0  0  0  0  0
   21.1438   -1.6025  -10.3507 C   0  0  2  0  0  0  0  0  0  0  0  0
   20.5139   -0.2326  -10.4732 C   0  0  0  0  0  0  0  0  0  0  0  0
   20.9379    0.2464  -11.8477 C   0  0  0  0  0  0  0  0  0  0  0  0
   22.0712   -0.6780  -12.2727 C   0  0  0  0  0  0  0  0  0  0  0  0
   22.5206   -1.3460  -10.9647 C   0  0  1  0  0  0  0  0  0  0  0  0
   23.3008   -0.5181  -10.1943 O   0  0  0  0  0  0  0  0  0  0  0  0
   24.6733   -0.5338  -10.0367 C   0  0  0  0  0  0  0  0  0  0  0  0
   25.4557   -1.1460  -10.9815 C   0  0  0  0  0  0  0  0  0  0  0  0
   26.8518   -1.1781  -10.8490 C   0  0  0  0  0  0  0  0  0  0  0  0
   27.6131   -1.7946  -11.8040 F   0  0  0  0  0  0  0  0  0  0  0  0
   27.4094   -0.5763   -9.7421 C   0  0  0  0  0  0  0  0  0  0  0  0
   26.6300    0.0460   -8.7796 C   0  0  0  0  0  0  0  0  0  0  0  0
   27.2602    0.6653   -7.6328 C   0  0  0  0  0  0  0  0  0  0  0  0
   27.7690    1.1472   -6.7125 N   0  0  0  0  0  0  0  0  0  0  0  0
   25.2667    0.0668   -8.9272 C   0  0  0  0  0  0  0  0  0  0  0  0
  1  2  1  6
  3  2  1  6
  3  4  1  0
  4  5  1  1
  5  6  1  6
  6  7  1  6
  7  8  1  1
  8  9  1  0
  9 10  2  0
 10 11  1  0
 11 12  1  0
 11 13  2  0
 13 14  1  0
 14 15  1  0
 15 16  3  0
 14 17  2  0
  7  3  1  0
 17  9  1  0
M  END
$$$$
