_rank3
     RDKit          3D

 17 18  0  0  0  0  0  0  0  0999 V2000
   27.1629    0.0214  -12.9689 C   0  0  0  0  0  0  0  0  0  0  0  0
   27.1949   -0.2191  -11.5832 O   0  0  0  0  0  0  0  0  0  0  0  0
   26.1759    0.5387  -11.0234 C   0  0  2  0  0  0  0  0  0  0  0  0
   26.6488    1.3199   -9.8173 C   0  0  0  0  0  0  0  0  0  0  0  0
   26.8266    0.2661   -8.7421 C   0  0  0  0  0  0  0  0  0  0  0  0
   26.0997   -0.9701   -9.2551 C   0  0  0  0  0  0  0  0  0  0  0  0
   25.1922   -0.4345  -10.3725 C   0  0  1  0  0  0  0  0  0  0  0  0
   24.0709    0.1903   -9.8830 O   0  0  0  0  0  0  0  0  0  0  0  0
   22.7448   -0.1084  -10.1301 C   0  0  0  0  0  0  0  0  0  0  0  0
   22.4266   -1.2389  -10.8375 C   0  0  0  0  0  0  0  0  0  0  0  0
   21.0895   -1.5687  -11.1042 C   0  0  0  0  0  0  0  0  0  0  0  0
   20.7951   -2.7017  -11.8120 F   0  0  0  0  0  0  0  0  0  0  0  0
   20.1094   -0.7223  -10.6335 C   0  0  0  0  0  0  0  0  0  0  0  0
   20.4174    0.4237   -9.9171 C   0  0  0  0  0  0  0  0  0  0  0  0
   19.3539    1.2836   -9.4424 C   0  0  0  0  0  0  0  0  0  0  0  0
   18.5048    1.9781   -9.0755 N   0  0  0  0  0  0  0  0  0  0  0  0
   21.7308    0.7288   -9.6667 C   0  0  0  0  0  0  0  0  0  0  0  0
  1  2  1  6
  3  2  1  1
  3  4  1  0
  4  5  1  1
  5  6  1  6
  6  7  1  6
  7  8  1  1
  8  9  1  0
  9 10  2  0
 10 11  1  0
 11 12  1  0
 11 13  2  0
 13 14  1  0
 14 15  1  0
 15 16  3  0
 14 17  2  0
  7  3  1  0
 17  9  1  0
M  END
$$$$
