_rank16
     RDKit          3D

 17 18  0  0  0  0  0  0  0  0999 V2000
   25.9627    2.5515  -13.9517 C   0  0  0  0  0  0  0  0  0  0  0  0
   25.5038    1.3614  -14.5449 O   0  0  0  0  0  0  0  0  0  0  0  0
   25.7770    0.3378  -13.6484 C   0  0  2  0  0  0  0  0  0  0  0  0
   25.6226   -1.0266  -14.2832 C   0  0  0  0  0  0  0  0  0  0  0  0
   24.1238   -1.1935  -14.4382 C   0  0  0  0  0  0  0  0  0  0  0  0
   23.4982   -0.1185  -13.5593 C   0  0  0  0  0  0  0  0  0  0  0  0
   24.6394    0.3142  -12.6267 C   0  0  1  0  0  0  0  0  0  0  0  0
   24.8555   -0.5848  -11.6106 O   0  0  0  0  0  0  0  0  0  0  0  0
   24.2125   -0.6726  -10.3909 C   0  0  0  0  0  0  0  0  0  0  0  0
   22.8424   -0.6966  -10.3488 C   0  0  0  0  0  0  0  0  0  0  0  0
   22.1613   -0.7851   -9.1257 C   0  0  0  0  0  0  0  0  0  0  0  0
   20.7936   -0.8077   -9.1072 F   0  0  0  0  0  0  0  0  0  0  0  0
   22.9116   -0.8470   -7.9717 C   0  0  0  0  0  0  0  0  0  0  0  0
   24.2973   -0.8236   -8.0002 C   0  0  0  0  0  0  0  0  0  0  0  0
   25.0442   -0.8908   -6.7619 C   0  0  0  0  0  0  0  0  0  0  0  0
   25.6528   -0.9480   -5.7800 N   0  0  0  0  0  0  0  0  0  0  0  0
   24.9447   -0.7366   -9.2062 C   0  0  0  0  0  0  0  0  0  0  0  0
  1  2  1  6
  3  2  1  6
  3  4  1  0
  4  5  1  1
  5  6  1  6
  6  7  1  6
  7  8  1  1
  8  9  1  0
  9 10  2  0
 10 11  1  0
 11 12  1  0
 11 13  2  0
 13 14  1  0
 14 15  1  0
 15 16  3  0
 14 17  2  0
  7  3  1  0
 17  9  1  0
M  END
$$$$
