_rank15
     RDKit          3D

 17 18  0  0  0  0  0  0  0  0999 V2000
   27.4913    2.6278  -13.8877 C   0  0  0  0  0  0  0  0  0  0  0  0
   26.2495    1.9860  -14.0457 O   0  0  0  0  0  0  0  0  0  0  0  0
   26.3192    0.8006  -13.3273 C   0  0  2  0  0  0  0  0  0  0  0  0
   25.9921   -0.4013  -14.1858 C   0  0  0  0  0  0  0  0  0  0  0  0
   24.4950   -0.3024  -14.4033 C   0  0  0  0  0  0  0  0  0  0  0  0
   23.9960    0.7010  -13.3719 C   0  0  0  0  0  0  0  0  0  0  0  0
   25.1411    0.7914  -12.3523 C   0  0  1  0  0  0  0  0  0  0  0  0
   25.1672   -0.2831  -11.4966 O   0  0  0  0  0  0  0  0  0  0  0  0
   24.3112   -0.5680  -10.4502 C   0  0  0  0  0  0  0  0  0  0  0  0
   22.9898   -0.8266  -10.7085 C   0  0  0  0  0  0  0  0  0  0  0  0
   22.0967   -1.1190   -9.6671 C   0  0  0  0  0  0  0  0  0  0  0  0
   20.7823   -1.3740   -9.9479 F   0  0  0  0  0  0  0  0  0  0  0  0
   22.5889   -1.1378   -8.3803 C   0  0  0  0  0  0  0  0  0  0  0  0
   23.9225   -0.8782   -8.1054 C   0  0  0  0  0  0  0  0  0  0  0  0
   24.3948   -0.9090   -6.7373 C   0  0  0  0  0  0  0  0  0  0  0  0
   24.7693   -0.9195   -5.6429 N   0  0  0  0  0  0  0  0  0  0  0  0
   24.7800   -0.5943   -9.1374 C   0  0  0  0  0  0  0  0  0  0  0  0
  1  2  1  6
  3  2  1  6
  3  4  1  0
  4  5  1  1
  5  6  1  6
  6  7  1  6
  7  8  1  1
  8  9  1  0
  9 10  2  0
 10 11  1  0
 11 12  1  0
 11 13  2  0
 13 14  1  0
 14 15  1  0
 15 16  3  0
 14 17  2  0
  7  3  1  0
 17  9  1  0
M  END
$$$$
