_rank5
     RDKit          3D

 17 18  0  0  0  0  0  0  0  0999 V2000
   19.5112    1.1882  -10.2503 C   0  0  0  0  0  0  0  0  0  0  0  0
   20.0434   -0.1096  -10.1438 O   0  0  0  0  0  0  0  0  0  0  0  0
   21.2659   -0.0944  -10.8006 C   0  0  2  0  0  0  0  0  0  0  0  0
   21.2781   -1.0224  -11.9952 C   0  0  0  0  0  0  0  0  0  0  0  0
   21.3148   -2.4093  -11.3840 C   0  0  0  0  0  0  0  0  0  0  0  0
   21.7007   -2.2047   -9.9250 C   0  0  0  0  0  0  0  0  0  0  0  0
   22.2803   -0.7828   -9.8865 C   0  0  1  0  0  0  0  0  0  0  0  0
   23.5625   -0.7259  -10.3765 O   0  0  0  0  0  0  0  0  0  0  0  0
   24.7457   -0.6063   -9.6733 C   0  0  0  0  0  0  0  0  0  0  0  0
   25.0758   -1.5536   -8.7387 C   0  0  0  0  0  0  0  0  0  0  0  0
   26.2701   -1.4592   -8.0090 C   0  0  0  0  0  0  0  0  0  0  0  0
   26.5794   -2.4160   -7.0813 F   0  0  0  0  0  0  0  0  0  0  0  0
   27.0979   -0.3871   -8.2611 C   0  0  0  0  0  0  0  0  0  0  0  0
   26.7762    0.5775   -9.2031 C   0  0  0  0  0  0  0  0  0  0  0  0
   27.6771    1.6869   -9.4342 C   0  0  0  0  0  0  0  0  0  0  0  0
   28.4069    2.5640   -9.6238 N   0  0  0  0  0  0  0  0  0  0  0  0
   25.6039    0.4675   -9.9063 C   0  0  0  0  0  0  0  0  0  0  0  0
  1  2  1  6
  3  2  1  1
  3  4  1  0
  4  5  1  1
  5  6  1  6
  6  7  1  6
  7  8  1  6
  8  9  1  0
  9 10  2  0
 10 11  1  0
 11 12  1  0
 11 13  2  0
 13 14  1  0
 14 15  1  0
 15 16  3  0
 14 17  2  0
  7  3  1  0
 17  9  1  0
M  END
$$$$
