_rank18
     RDKit          3D

 17 18  0  0  0  0  0  0  0  0999 V2000
   20.6539   -1.3780  -12.0150 C   0  0  0  0  0  0  0  0  0  0  0  0
   21.7329   -1.1319  -12.8834 O   0  0  0  0  0  0  0  0  0  0  0  0
   22.4289   -0.0520  -12.3585 C   0  0  2  0  0  0  0  0  0  0  0  0
   23.1986    0.6970  -13.4239 C   0  0  0  0  0  0  0  0  0  0  0  0
   24.3497   -0.2284  -13.7660 C   0  0  0  0  0  0  0  0  0  0  0  0
   24.3994   -1.2544  -12.6416 C   0  0  0  0  0  0  0  0  0  0  0  0
   23.5728   -0.6164  -11.5152 C   0  0  1  0  0  0  0  0  0  0  0  0
   24.2686    0.3583  -10.8419 O   0  0  0  0  0  0  0  0  0  0  0  0
   24.9026    0.2699   -9.6176 C   0  0  0  0  0  0  0  0  0  0  0  0
   24.3580   -0.5077   -8.6284 C   0  0  0  0  0  0  0  0  0  0  0  0
   24.9786   -0.6172   -7.3752 C   0  0  0  0  0  0  0  0  0  0  0  0
   24.4175   -1.3988   -6.4027 F   0  0  0  0  0  0  0  0  0  0  0  0
   26.1495    0.0798   -7.1713 C   0  0  0  0  0  0  0  0  0  0  0  0
   26.7107    0.8694   -8.1627 C   0  0  0  0  0  0  0  0  0  0  0  0
   27.9427    1.5839   -7.9029 C   0  0  0  0  0  0  0  0  0  0  0  0
   28.9327    2.1427   -7.6896 N   0  0  0  0  0  0  0  0  0  0  0  0
   26.0887    0.9636   -9.3814 C   0  0  0  0  0  0  0  0  0  0  0  0
  1  2  1  6
  3  2  1  6
  3  4  1  0
  4  5  1  1
  5  6  1  6
  6  7  1  6
  7  8  1  6
  8  9  1  0
  9 10  2  0
 10 11  1  0
 11 12  1  0
 11 13  2  0
 13 14  1  0
 14 15  1  0
 15 16  3  0
 14 17  2  0
  7  3  1  0
 17  9  1  0
M  END
$$$$
