_rank1
     RDKit          3D

 17 18  0  0  0  0  0  0  0  0999 V2000
   27.7905   -0.1400   -8.5136 C   0  0  0  0  0  0  0  0  0  0  0  0
   27.0483    0.5027   -9.5211 O   0  0  0  0  0  0  0  0  0  0  0  0
   26.3212   -0.4841  -10.1718 C   0  0  2  0  0  0  0  0  0  0  0  0
   26.6937   -0.5902  -11.6341 C   0  0  0  0  0  0  0  0  0  0  0  0
   26.0883    0.6510  -12.2596 C   0  0  0  0  0  0  0  0  0  0  0  0
   25.1022    1.1893  -11.2314 C   0  0  0  0  0  0  0  0  0  0  0  0
   24.8774    0.0094  -10.2741 C   0  0  1  0  0  0  0  0  0  0  0  0
   24.0280   -0.9354  -10.7969 O   0  0  0  0  0  0  0  0  0  0  0  0
   22.6572   -1.0306  -10.6534 C   0  0  0  0  0  0  0  0  0  0  0  0
   22.0127   -2.1723  -11.0544 C   0  0  0  0  0  0  0  0  0  0  0  0
   20.6220   -2.2982  -10.9214 C   0  0  0  0  0  0  0  0  0  0  0  0
   19.9997   -3.4467  -11.3282 F   0  0  0  0  0  0  0  0  0  0  0  0
   19.9269   -1.2407  -10.3765 C   0  0  0  0  0  0  0  0  0  0  0  0
   20.5661   -0.0809   -9.9671 C   0  0  0  0  0  0  0  0  0  0  0  0
   19.7944    1.0047   -9.4000 C   0  0  0  0  0  0  0  0  0  0  0  0
   19.1710    1.8738   -8.9595 N   0  0  0  0  0  0  0  0  0  0  0  0
   21.9266    0.0229  -10.1055 C   0  0  0  0  0  0  0  0  0  0  0  0
  1  2  1  6
  3  2  1  1
  3  4  1  0
  4  5  1  1
  5  6  1  6
  6  7  1  6
  7  8  1  6
  8  9  1  0
  9 10  2  0
 10 11  1  0
 11 12  1  0
 11 13  2  0
 13 14  1  0
 14 15  1  0
 15 16  3  0
 14 17  2  0
  7  3  1  0
 17  9  1  0
M  END
$$$$
