_rank5
     RDKit          3D

 17 18  0  0  0  0  0  0  0  0999 V2000
   26.8555   -0.3178  -13.7215 C   0  0  0  0  0  0  0  0  0  0  0  0
   26.4347    0.8078  -12.3976 S   0  0  1  0  0  6  0  0  0  0  0  0
   27.6615    1.0057  -11.5700 O   0  0  0  0  0  0  0  0  0  0  0  0
   26.0271    2.0950  -13.1093 O   0  0  0  0  0  0  0  0  0  0  0  0
   25.1354    0.1633  -11.4318 C   0  0  0  0  0  0  0  0  0  0  0  0
   23.8840   -0.0279  -12.0086 C   0  0  0  0  0  0  0  0  0  0  0  0
   22.8238   -0.5264  -11.2915 C   0  0  0  0  0  0  0  0  0  0  0  0
   23.0107   -0.8412   -9.9754 C   0  0  0  0  0  0  0  0  0  0  0  0
   24.2402   -0.6534   -9.4092 C   0  0  0  0  0  0  0  0  0  0  0  0
   25.3279   -0.1476  -10.1249 C   0  0  0  0  0  0  0  0  0  0  0  0
   26.5942    0.0034   -9.4179 C   0  0  1  0  0  0  0  0  0  0  0  0
   27.1442    1.2558   -9.3993 O   0  0  0  0  0  0  0  0  0  0  0  0
   26.4839   -0.4374   -8.0043 C   0  0  0  0  0  0  0  0  0  0  0  0
   26.3839   -0.7941   -6.9075 N   0  0  0  0  0  0  0  0  0  0  0  0
   21.7797   -1.3189   -9.5050 O   0  0  0  0  0  0  0  0  0  0  0  0
   20.9962   -1.6947  -10.6480 C   0  0  0  0  0  0  0  0  0  0  0  0
   21.4989   -0.8053  -11.6279 O   0  0  0  0  0  0  0  0  0  0  0  0
  1  2  1  6
  2  3  2  0
  2  4  2  0
  2  5  1  1
  5  6  2  0
  6  7  1  0
  7  8  2  0
  8  9  1  0
  9 10  2  0
 10 11  1  0
 11 12  1  1
 11 13  1  0
 13 14  3  0
  8 15  1  0
 16 15  1  1
 16 17  1  0
 10  5  1  0
 17  7  1  0
M  END
$$$$
