_rank7
     RDKit          3D

 17 18  0  0  0  0  0  0  0  0999 V2000
   28.4279   -0.2940   -8.0980 C   0  0  0  0  0  0  0  0  0  0  0  0
   26.6634   -0.4833   -8.3166 S   0  0  1  0  0  6  0  0  0  0  0  0
   26.3165   -1.8925   -7.9658 O   0  0  0  0  0  0  0  0  0  0  0  0
   26.0505    0.5056   -7.3287 O   0  0  0  0  0  0  0  0  0  0  0  0
   26.2051   -0.1249   -9.9591 C   0  0  0  0  0  0  0  0  0  0  0  0
   27.1225    0.4868  -10.8074 C   0  0  0  0  0  0  0  0  0  0  0  0
   26.8113    0.7973  -12.1087 C   0  0  0  0  0  0  0  0  0  0  0  0
   25.5642    0.4941  -12.5765 C   0  0  0  0  0  0  0  0  0  0  0  0
   24.6634   -0.1069  -11.7429 C   0  0  0  0  0  0  0  0  0  0  0  0
   24.9645   -0.4290  -10.4175 C   0  0  0  0  0  0  0  0  0  0  0  0
   23.9262   -1.0755   -9.6236 C   0  0  1  0  0  0  0  0  0  0  0  0
   23.3933   -0.3473   -8.5955 O   0  0  0  0  0  0  0  0  0  0  0  0
   22.7894   -1.5168  -10.4707 C   0  0  0  0  0  0  0  0  0  0  0  0
   21.8924   -1.8645  -11.1147 N   0  0  0  0  0  0  0  0  0  0  0  0
   25.5299    0.9172  -13.9124 O   0  0  0  0  0  0  0  0  0  0  0  0
   26.8879    1.0662  -14.3540 C   0  0  0  0  0  0  0  0  0  0  0  0
   27.5350    1.3978  -13.1393 O   0  0  0  0  0  0  0  0  0  0  0  0
  1  2  1  6
  2  3  2  0
  2  4  2  0
  2  5  1  6
  5  6  2  0
  6  7  1  0
  7  8  2  0
  8  9  1  0
  9 10  2  0
 10 11  1  0
 11 12  1  1
 11 13  1  0
 13 14  3  0
  8 15  1  0
 16 15  1  1
 16 17  1  0
 10  5  1  0
 17  7  1  0
M  END
$$$$
