_rank11
     RDKit          3D

 17 18  0  0  0  0  0  0  0  0999 V2000
   26.4506   -2.0723   -8.3799 C   0  0  0  0  0  0  0  0  0  0  0  0
   27.2685   -0.5336   -8.7808 S   0  0  1  0  0  6  0  0  0  0  0  0
   26.9066    0.4557   -7.7228 O   0  0  0  0  0  0  0  0  0  0  0  0
   28.7559   -0.8736   -8.7427 O   0  0  0  0  0  0  0  0  0  0  0  0
   26.7747    0.0343  -10.3524 C   0  0  0  0  0  0  0  0  0  0  0  0
   27.7269    0.5582  -11.2208 C   0  0  0  0  0  0  0  0  0  0  0  0
   27.3913    1.0259  -12.4679 C   0  0  0  0  0  0  0  0  0  0  0  0
   26.0839    0.9719  -12.8601 C   0  0  0  0  0  0  0  0  0  0  0  0
   25.1488    0.4570  -12.0068 C   0  0  0  0  0  0  0  0  0  0  0  0
   25.4742   -0.0225  -10.7358 C   0  0  0  0  0  0  0  0  0  0  0  0
   24.3937   -0.5561   -9.9148 C   0  0  1  0  0  0  0  0  0  0  0  0
   23.8779    0.2750   -8.9586 O   0  0  0  0  0  0  0  0  0  0  0  0
   23.2520   -1.0120  -10.7475 C   0  0  0  0  0  0  0  0  0  0  0  0
   22.3657   -1.3862  -11.3915 N   0  0  0  0  0  0  0  0  0  0  0  0
   26.0374    1.5077  -14.1545 O   0  0  0  0  0  0  0  0  0  0  0  0
   27.3705    1.4701  -14.6864 C   0  0  0  0  0  0  0  0  0  0  0  0
   28.1397    1.5860  -13.5036 O   0  0  0  0  0  0  0  0  0  0  0  0
  1  2  1  6
  2  3  2  0
  2  4  2  0
  2  5  1  6
  5  6  2  0
  6  7  1  0
  7  8  2  0
  8  9  1  0
  9 10  2  0
 10 11  1  0
 11 12  1  1
 11 13  1  0
 13 14  3  0
  8 15  1  0
 16 15  1  1
 16 17  1  0
 10  5  1  0
 17  7  1  0
M  END
$$$$
