_rank3
     RDKit          3D

 17 18  0  0  0  0  0  0  0  0999 V2000
   28.0133   -1.5430   -9.2268 C   0  0  0  0  0  0  0  0  0  0  0  0
   27.0920   -0.0709   -8.8013 S   0  0  1  0  0  6  0  0  0  0  0  0
   26.8760   -0.0883   -7.3240 O   0  0  0  0  0  0  0  0  0  0  0  0
   28.0024    1.0805   -9.2194 O   0  0  0  0  0  0  0  0  0  0  0  0
   25.5694   -0.0319   -9.6477 C   0  0  0  0  0  0  0  0  0  0  0  0
   24.3865   -0.2045   -8.9362 C   0  0  0  0  0  0  0  0  0  0  0  0
   23.1600   -0.1893   -9.5543 C   0  0  0  0  0  0  0  0  0  0  0  0
   23.1077    0.0012  -10.9060 C   0  0  0  0  0  0  0  0  0  0  0  0
   24.2699    0.1708  -11.6046 C   0  0  0  0  0  0  0  0  0  0  0  0
   25.5246    0.1580  -10.9906 C   0  0  0  0  0  0  0  0  0  0  0  0
   26.6958    0.3565  -11.8363 C   0  0  1  0  0  0  0  0  0  0  0  0
   27.5389   -0.7107  -11.9820 O   0  0  0  0  0  0  0  0  0  0  0  0
   26.3123    0.7898  -13.2037 C   0  0  0  0  0  0  0  0  0  0  0  0
   26.0045    1.1100  -14.2728 N   0  0  0  0  0  0  0  0  0  0  0  0
   21.7509   -0.0297  -11.2569 O   0  0  0  0  0  0  0  0  0  0  0  0
   20.9896    0.1999  -10.0615 C   0  0  0  0  0  0  0  0  0  0  0  0
   21.8566   -0.3354   -9.0787 O   0  0  0  0  0  0  0  0  0  0  0  0
  1  2  1  6
  2  3  2  0
  2  4  2  0
  2  5  1  6
  5  6  2  0
  6  7  1  0
  7  8  2  0
  8  9  1  0
  9 10  2  0
 10 11  1  0
 11 12  1  6
 11 13  1  0
 13 14  3  0
  8 15  1  0
 16 15  1  1
 16 17  1  0
 10  5  1  0
 17  7  1  0
M  END
$$$$
