_rank9
     RDKit          3D

 17 18  0  0  0  0  0  0  0  0999 V2000
   28.5496   -1.4073   -8.7781 C   0  0  0  0  0  0  0  0  0  0  0  0
   26.9981   -0.5779   -8.4591 S   0  0  1  0  0  6  0  0  0  0  0  0
   26.0986   -1.5555   -7.7777 O   0  0  0  0  0  0  0  0  0  0  0  0
   27.3693    0.5785   -7.5346 O   0  0  0  0  0  0  0  0  0  0  0  0
   26.2847   -0.0143   -9.9456 C   0  0  0  0  0  0  0  0  0  0  0  0
   27.0937    0.5729  -10.9131 C   0  0  0  0  0  0  0  0  0  0  0  0
   26.5825    1.0400  -12.0994 C   0  0  0  0  0  0  0  0  0  0  0  0
   25.2410    0.9214  -12.3288 C   0  0  0  0  0  0  0  0  0  0  0  0
   24.4467    0.3444  -11.3782 C   0  0  0  0  0  0  0  0  0  0  0  0
   24.9514   -0.1355  -10.1673 C   0  0  0  0  0  0  0  0  0  0  0  0
   24.0100   -0.7385   -9.2312 C   0  0  1  0  0  0  0  0  0  0  0  0
   23.3840    0.1063   -8.3563 O   0  0  0  0  0  0  0  0  0  0  0  0
   22.9428   -1.4888   -9.9405 C   0  0  0  0  0  0  0  0  0  0  0  0
   22.0973   -2.0658  -10.4812 N   0  0  0  0  0  0  0  0  0  0  0  0
   25.0069    1.4730  -13.5960 O   0  0  0  0  0  0  0  0  0  0  0  0
   26.2640    1.5150  -14.2885 C   0  0  0  0  0  0  0  0  0  0  0  0
   27.1667    1.6549  -13.2071 O   0  0  0  0  0  0  0  0  0  0  0  0
  1  2  1  6
  2  3  2  0
  2  4  2  0
  2  5  1  6
  5  6  2  0
  6  7  1  0
  7  8  2  0
  8  9  1  0
  9 10  2  0
 10 11  1  0
 11 12  1  6
 11 13  1  0
 13 14  3  0
  8 15  1  0
 16 15  1  1
 16 17  1  0
 10  5  1  0
 17  7  1  0
M  END
$$$$
