_rank20
     RDKit          3D

 17 18  0  0  0  0  0  0  0  0999 V2000
   27.9970    0.2207  -10.1285 C   0  0  0  0  0  0  0  0  0  0  0  0
   26.6872   -0.4647   -9.1226 S   0  0  1  0  0  6  0  0  0  0  0  0
   27.1804   -1.7589   -8.5649 O   0  0  0  0  0  0  0  0  0  0  0  0
   26.4715    0.5717   -8.0231 O   0  0  0  0  0  0  0  0  0  0  0  0
   25.2468   -0.7100  -10.0719 C   0  0  0  0  0  0  0  0  0  0  0  0
   25.1478   -1.8329  -10.8873 C   0  0  0  0  0  0  0  0  0  0  0  0
   24.0382   -2.0714  -11.6609 C   0  0  0  0  0  0  0  0  0  0  0  0
   23.0065   -1.1767  -11.6238 C   0  0  0  0  0  0  0  0  0  0  0  0
   23.1041   -0.0739  -10.8226 C   0  0  0  0  0  0  0  0  0  0  0  0
   24.2255    0.1826  -10.0302 C   0  0  0  0  0  0  0  0  0  0  0  0
   24.2150    1.3878   -9.2095 C   0  0  1  0  0  0  0  0  0  0  0  0
   24.9384    2.4535   -9.6702 O   0  0  0  0  0  0  0  0  0  0  0  0
   22.8321    1.8764   -8.9780 C   0  0  0  0  0  0  0  0  0  0  0  0
   21.7569    2.2716   -8.8109 N   0  0  0  0  0  0  0  0  0  0  0  0
   22.0263   -1.6677  -12.4972 O   0  0  0  0  0  0  0  0  0  0  0  0
   22.2946   -3.0623  -12.7085 C   0  0  0  0  0  0  0  0  0  0  0  0
   23.7001   -3.0980  -12.5431 O   0  0  0  0  0  0  0  0  0  0  0  0
  1  2  1  6
  2  3  2  0
  2  4  2  0
  2  5  1  6
  5  6  2  0
  6  7  1  0
  7  8  2  0
  8  9  1  0
  9 10  2  0
 10 11  1  0
 11 12  1  6
 11 13  1  0
 13 14  3  0
  8 15  1  0
 16 15  1  1
 16 17  1  0
 10  5  1  0
 17  7  1  0
M  END
$$$$
