_rank10
     RDKit          3D

 17 18  0  0  0  0  0  0  0  0999 V2000
   26.3785    0.4827   -7.2726 C   0  0  0  0  0  0  0  0  0  0  0  0
   27.2506   -0.3792   -8.5739 S   0  0  1  0  0  6  0  0  0  0  0  0
   28.6864    0.0223   -8.4940 O   0  0  0  0  0  0  0  0  0  0  0  0
   27.0643   -1.8571   -8.2410 O   0  0  0  0  0  0  0  0  0  0  0  0
   26.5828    0.0221  -10.1325 C   0  0  0  0  0  0  0  0  0  0  0  0
   27.4203    0.5096  -11.1306 C   0  0  0  0  0  0  0  0  0  0  0  0
   26.9454    0.8475  -12.3744 C   0  0  0  0  0  0  0  0  0  0  0  0
   25.6121    0.6981  -12.6316 C   0  0  0  0  0  0  0  0  0  0  0  0
   24.7898    0.2191  -11.6508 C   0  0  0  0  0  0  0  0  0  0  0  0
   25.2574   -0.1290  -10.3814 C   0  0  0  0  0  0  0  0  0  0  0  0
   24.2885   -0.6363   -9.4170 C   0  0  1  0  0  0  0  0  0  0  0  0
   23.7891    0.2619   -8.5142 O   0  0  0  0  0  0  0  0  0  0  0  0
   23.1220   -1.2578  -10.0934 C   0  0  0  0  0  0  0  0  0  0  0  0
   22.2130   -1.7574  -10.6077 N   0  0  0  0  0  0  0  0  0  0  0  0
   25.4165    1.1131  -13.9561 O   0  0  0  0  0  0  0  0  0  0  0  0
   26.6945    1.0896  -14.6100 C   0  0  0  0  0  0  0  0  0  0  0  0
   27.5627    1.3466  -13.5217 O   0  0  0  0  0  0  0  0  0  0  0  0
  1  2  1  6
  2  3  2  0
  2  4  2  0
  2  5  1  6
  5  6  2  0
  6  7  1  0
  7  8  2  0
  8  9  1  0
  9 10  2  0
 10 11  1  0
 11 12  1  6
 11 13  1  0
 13 14  3  0
  8 15  1  0
 16 15  1  1
 16 17  1  0
 10  5  1  0
 17  7  1  0
M  END
$$$$
