_rank4
     RDKit          3D

 17 18  0  0  0  0  0  0  0  0999 V2000
   26.3223    0.6546  -14.1850 C   0  0  0  0  0  0  0  0  0  0  0  0
   26.5945    0.9918  -12.4503 S   0  0  1  0  0  6  0  0  0  0  0  0
   27.9561    0.4869  -12.1035 O   0  0  0  0  0  0  0  0  0  0  0  0
   26.5183    2.5124  -12.3430 O   0  0  0  0  0  0  0  0  0  0  0  0
   25.3796    0.2127  -11.4741 C   0  0  0  0  0  0  0  0  0  0  0  0
   24.0966    0.0436  -11.9846 C   0  0  0  0  0  0  0  0  0  0  0  0
   23.0997   -0.5577  -11.2556 C   0  0  0  0  0  0  0  0  0  0  0  0
   23.3832   -0.9997   -9.9945 C   0  0  0  0  0  0  0  0  0  0  0  0
   24.6436   -0.8335   -9.4934 C   0  0  0  0  0  0  0  0  0  0  0  0
   25.6679   -0.2244  -10.2221 C   0  0  0  0  0  0  0  0  0  0  0  0
   26.9756   -0.1081   -9.5875 C   0  0  1  0  0  0  0  0  0  0  0  0
   27.3749    1.1488   -9.2243 O   0  0  0  0  0  0  0  0  0  0  0  0
   27.0673   -0.9551   -8.3714 C   0  0  0  0  0  0  0  0  0  0  0  0
   27.1196   -1.6121   -7.4196 N   0  0  0  0  0  0  0  0  0  0  0  0
   22.1986   -1.5602   -9.4970 O   0  0  0  0  0  0  0  0  0  0  0  0
   21.3481   -1.8407  -10.6192 C   0  0  0  0  0  0  0  0  0  0  0  0
   21.7619   -0.8408  -11.5319 O   0  0  0  0  0  0  0  0  0  0  0  0
  1  2  1  6
  2  3  2  0
  2  4  2  0
  2  5  1  1
  5  6  2  0
  6  7  1  0
  7  8  2  0
  8  9  1  0
  9 10  2  0
 10 11  1  0
 11 12  1  1
 11 13  1  0
 13 14  3  0
  8 15  1  0
 16 15  1  1
 16 17  1  0
 10  5  1  0
 17  7  1  0
M  END
$$$$
