_rank12
     RDKit          3D

 17 18  0  0  0  0  0  0  0  0999 V2000
   27.8385    1.2091   -9.3484 C   0  0  0  0  0  0  0  0  0  0  0  0
   26.8560   -0.1480   -8.7239 S   0  0  1  0  0  6  0  0  0  0  0  0
   27.5398   -1.4154   -9.1178 O   0  0  0  0  0  0  0  0  0  0  0  0
   26.8635    0.0437   -7.2097 O   0  0  0  0  0  0  0  0  0  0  0  0
   25.2410   -0.0891   -9.3755 C   0  0  0  0  0  0  0  0  0  0  0  0
   24.1541   -0.0543   -8.5079 C   0  0  0  0  0  0  0  0  0  0  0  0
   22.8604   -0.0140   -8.9678 C   0  0  0  0  0  0  0  0  0  0  0  0
   22.6424   -0.0082  -10.3164 C   0  0  0  0  0  0  0  0  0  0  0  0
   23.7104   -0.0422  -11.1683 C   0  0  0  0  0  0  0  0  0  0  0  0
   25.0314   -0.0833  -10.7162 C   0  0  0  0  0  0  0  0  0  0  0  0
   26.0908   -0.1099  -11.7179 C   0  0  1  0  0  0  0  0  0  0  0  0
   26.8654   -1.2363  -11.7661 O   0  0  0  0  0  0  0  0  0  0  0  0
   25.5516    0.0986  -13.0855 C   0  0  0  0  0  0  0  0  0  0  0  0
   25.1451    0.2750  -14.1550 N   0  0  0  0  0  0  0  0  0  0  0  0
   21.2523    0.0353  -10.4914 O   0  0  0  0  0  0  0  0  0  0  0  0
   20.6754    0.4956   -9.2598 C   0  0  0  0  0  0  0  0  0  0  0  0
   21.6249    0.0252   -8.3211 O   0  0  0  0  0  0  0  0  0  0  0  0
  1  2  1  6
  2  3  2  0
  2  4  2  0
  2  5  1  6
  5  6  2  0
  6  7  1  0
  7  8  2  0
  8  9  1  0
  9 10  2  0
 10 11  1  0
 11 12  1  6
 11 13  1  0
 13 14  3  0
  8 15  1  0
 16 15  1  1
 16 17  1  0
 10  5  1  0
 17  7  1  0
M  END
$$$$
