_rank18
     RDKit          3D

 19 20  0  0  0  0  0  0  0  0999 V2000
   27.0093   -1.3048  -12.6037 C   0  0  0  0  0  0  0  0  0  0  0  0
   26.6214    0.0809  -12.1632 C   0  0  1  0  0  0  0  0  0  0  0  0
   27.8121    0.9307  -11.9450 C   0  0  0  0  0  0  0  0  0  0  0  0
   25.6258    0.7801  -13.0701 C   0  0  0  0  0  0  0  0  0  0  0  0
   25.1207    1.4400  -11.7855 C   0  0  0  0  0  0  0  0  0  0  0  0
   25.5761    0.1396  -11.0748 C   0  0  1  0  0  0  0  0  0  0  0  0
   24.5419   -0.7917  -11.2213 O   0  0  0  0  0  0  0  0  0  0  0  0
   23.3441   -0.7266  -10.5589 C   0  0  0  0  0  0  0  0  0  0  0  0
   22.1371   -0.3290  -11.0907 C   0  0  0  0  0  0  0  0  0  0  0  0
   20.9744   -0.3058  -10.3111 C   0  0  0  0  0  0  0  0  0  0  0  0
   19.8052    0.0964  -10.8853 F   0  0  0  0  0  0  0  0  0  0  0  0
   20.9769   -0.6756   -8.9856 C   0  0  0  0  0  0  0  0  0  0  0  0
   22.1782   -1.0747   -8.4471 C   0  0  0  0  0  0  0  0  0  0  0  0
   22.2004   -1.4640   -7.0688 C   0  0  0  0  0  0  0  0  0  0  0  0
   22.2039   -1.7872   -5.9369 N   0  0  0  0  0  0  0  0  0  0  0  0
   23.3096   -1.0969   -9.2082 C   0  0  0  0  0  0  0  0  0  0  0  0
   26.1081    0.3820   -9.7402 C   0  0  0  0  0  0  0  0  0  0  0  0
   26.6670   -0.5937   -9.1366 O   0  0  0  0  0  0  0  0  0  0  0  0
   26.0820    1.5681   -9.0318 O   0  0  0  0  0  0  0  0  0  0  0  0
  2  1  1  6
  3  2  1  1
  2  4  1  0
  4  5  1  6
  5  6  1  1
  6  7  1  1
  7  8  1  0
  8  9  2  0
  9 10  1  0
 10 11  1  0
 10 12  2  0
 12 13  1  0
 13 14  1  0
 14 15  3  0
 13 16  2  0
  6 17  1  0
 17 18  2  0
 17 19  1  0
  6  2  1  0
 16  8  1  0
M  END
$$$$
