_rank9
     RDKit          3D

 19 20  0  0  0  0  0  0  0  0999 V2000
   27.4863   -1.8190  -11.3666 C   0  0  0  0  0  0  0  0  0  0  0  0
   27.3456   -0.4599  -10.7360 C   0  0  1  0  0  0  0  0  0  0  0  0
   28.4850   -0.1593   -9.8422 C   0  0  0  0  0  0  0  0  0  0  0  0
   27.1233    0.6756  -11.7176 C   0  0  0  0  0  0  0  0  0  0  0  0
   26.2902    1.3034  -10.5984 C   0  0  0  0  0  0  0  0  0  0  0  0
   25.9798   -0.1536  -10.1688 C   0  0  1  0  0  0  0  0  0  0  0  0
   24.9160   -0.5974  -10.9624 O   0  0  0  0  0  0  0  0  0  0  0  0
   23.6359   -0.7780  -10.5078 C   0  0  0  0  0  0  0  0  0  0  0  0
   23.1244   -0.3325   -9.3088 C   0  0  0  0  0  0  0  0  0  0  0  0
   21.7926   -0.5779   -8.9535 C   0  0  0  0  0  0  0  0  0  0  0  0
   21.3356   -0.1159   -7.7550 F   0  0  0  0  0  0  0  0  0  0  0  0
   20.9334   -1.2701   -9.7759 C   0  0  0  0  0  0  0  0  0  0  0  0
   21.4363   -1.7177  -10.9755 C   0  0  0  0  0  0  0  0  0  0  0  0
   20.5566   -2.4397  -11.8454 C   0  0  0  0  0  0  0  0  0  0  0  0
   19.8283   -3.0407  -12.5482 N   0  0  0  0  0  0  0  0  0  0  0  0
   22.7338   -1.4774  -11.3200 C   0  0  0  0  0  0  0  0  0  0  0  0
   25.8788   -0.3068   -8.7235 C   0  0  0  0  0  0  0  0  0  0  0  0
   26.1404   -1.4532   -8.2273 O   0  0  0  0  0  0  0  0  0  0  0  0
   25.5272    0.6609   -7.8020 O   0  0  0  0  0  0  0  0  0  0  0  0
  2  1  1  6
  3  2  1  1
  2  4  1  0
  4  5  1  6
  5  6  1  1
  6  7  1  6
  7  8  1  0
  8  9  2  0
  9 10  1  0
 10 11  1  0
 10 12  2  0
 12 13  1  0
 13 14  1  0
 14 15  3  0
 13 16  2  0
  6 17  1  0
 17 18  2  0
 17 19  1  0
  6  2  1  0
 16  8  1  0
M  END
$$$$
