_rank19
     RDKit          3D

 19 20  0  0  0  0  0  0  0  0999 V2000
   24.3487   -0.3316  -13.8967 C   0  0  0  0  0  0  0  0  0  0  0  0
   23.2910   -0.7714  -12.9207 C   0  0  1  0  0  0  0  0  0  0  0  0
   21.9426   -0.3537  -13.3622 C   0  0  0  0  0  0  0  0  0  0  0  0
   23.3091   -2.2520  -12.5890 C   0  0  0  0  0  0  0  0  0  0  0  0
   22.8154   -1.8132  -11.2090 C   0  0  0  0  0  0  0  0  0  0  0  0
   23.6075   -0.5059  -11.4681 C   0  0  1  0  0  0  0  0  0  0  0  0
   24.9386   -0.7561  -11.1156 O   0  0  0  0  0  0  0  0  0  0  0  0
   25.4318   -0.6576   -9.8410 C   0  0  0  0  0  0  0  0  0  0  0  0
   24.7187   -0.8239   -8.6741 C   0  0  0  0  0  0  0  0  0  0  0  0
   25.3364   -0.6998   -7.4238 C   0  0  0  0  0  0  0  0  0  0  0  0
   24.5859   -0.8735   -6.2990 F   0  0  0  0  0  0  0  0  0  0  0  0
   26.6753   -0.4084   -7.2968 C   0  0  0  0  0  0  0  0  0  0  0  0
   27.3946   -0.2415   -8.4574 C   0  0  0  0  0  0  0  0  0  0  0  0
   28.7901    0.0618   -8.3453 C   0  0  0  0  0  0  0  0  0  0  0  0
   29.9385    0.2994   -8.2437 N   0  0  0  0  0  0  0  0  0  0  0  0
   26.7912   -0.3630   -9.6744 C   0  0  0  0  0  0  0  0  0  0  0  0
   22.9519    0.6710  -10.9133 C   0  0  0  0  0  0  0  0  0  0  0  0
   23.4057    1.8166  -11.2456 O   0  0  0  0  0  0  0  0  0  0  0  0
   21.8721    0.6991  -10.0517 O   0  0  0  0  0  0  0  0  0  0  0  0
  2  1  1  6
  3  2  1  1
  2  4  1  0
  4  5  1  6
  5  6  1  1
  6  7  1  6
  7  8  1  0
  8  9  2  0
  9 10  1  0
 10 11  1  0
 10 12  2  0
 12 13  1  0
 13 14  1  0
 14 15  3  0
 13 16  2  0
  6 17  1  0
 17 18  2  0
 17 19  1  0
  6  2  1  0
 16  8  1  0
M  END
$$$$
