_rank14
     RDKit          3D

 19 20  0  0  0  0  0  0  0  0999 V2000
   27.9171   -1.1455  -11.2334 C   0  0  0  0  0  0  0  0  0  0  0  0
   27.4666    0.0803  -10.4858 C   0  0  1  0  0  0  0  0  0  0  0  0
   28.5071    0.5522   -9.5466 C   0  0  0  0  0  0  0  0  0  0  0  0
   26.9854    1.2194  -11.3653 C   0  0  0  0  0  0  0  0  0  0  0  0
   26.0317    1.5319  -10.2105 C   0  0  0  0  0  0  0  0  0  0  0  0
   26.0681    0.0094   -9.9200 C   0  0  1  0  0  0  0  0  0  0  0  0
   25.1345   -0.5930  -10.7709 O   0  0  0  0  0  0  0  0  0  0  0  0
   23.8163   -0.7924  -10.4539 C   0  0  0  0  0  0  0  0  0  0  0  0
   23.2869   -0.8908   -9.1860 C   0  0  0  0  0  0  0  0  0  0  0  0
   21.9160   -1.0941   -8.9872 C   0  0  0  0  0  0  0  0  0  0  0  0
   21.4425   -1.1850   -7.7120 F   0  0  0  0  0  0  0  0  0  0  0  0
   21.0345   -1.2048  -10.0381 C   0  0  0  0  0  0  0  0  0  0  0  0
   21.5552   -1.1068  -11.3076 C   0  0  0  0  0  0  0  0  0  0  0  0
   20.6529   -1.2189  -12.4145 C   0  0  0  0  0  0  0  0  0  0  0  0
   19.9119   -1.3263  -13.3227 N   0  0  0  0  0  0  0  0  0  0  0  0
   22.8909   -0.9085  -11.4993 C   0  0  0  0  0  0  0  0  0  0  0  0
   26.0082   -0.2955   -8.4966 C   0  0  0  0  0  0  0  0  0  0  0  0
   26.1139   -1.5179   -8.1453 O   0  0  0  0  0  0  0  0  0  0  0  0
   25.8484    0.5987   -7.4553 O   0  0  0  0  0  0  0  0  0  0  0  0
  2  1  1  6
  3  2  1  1
  2  4  1  0
  4  5  1  6
  5  6  1  1
  6  7  1  6
  7  8  1  0
  8  9  2  0
  9 10  1  0
 10 11  1  0
 10 12  2  0
 12 13  1  0
 13 14  1  0
 14 15  3  0
 13 16  2  0
  6 17  1  0
 17 18  2  0
 17 19  1  0
  6  2  1  0
 16  8  1  0
M  END
$$$$
