_rank13
     RDKit          3D

 19 20  0  0  0  0  0  0  0  0999 V2000
   27.5652   -1.0995  -11.7248 C   0  0  0  0  0  0  0  0  0  0  0  0
   27.3272   -0.0102  -10.7141 C   0  0  1  0  0  0  0  0  0  0  0  0
   28.5109    0.1927   -9.8509 C   0  0  0  0  0  0  0  0  0  0  0  0
   26.8618    1.3096  -11.3005 C   0  0  0  0  0  0  0  0  0  0  0  0
   26.0838    1.4645   -9.9923 C   0  0  0  0  0  0  0  0  0  0  0  0
   26.0036   -0.0839   -9.9906 C   0  0  1  0  0  0  0  0  0  0  0  0
   24.9229   -0.4395  -10.8055 O   0  0  0  0  0  0  0  0  0  0  0  0
   23.6838   -0.7891  -10.3364 C   0  0  0  0  0  0  0  0  0  0  0  0
   23.2655   -0.7481   -9.0245 C   0  0  0  0  0  0  0  0  0  0  0  0
   21.9674   -1.1306   -8.6658 C   0  0  0  0  0  0  0  0  0  0  0  0
   21.6033   -1.0721   -7.3533 F   0  0  0  0  0  0  0  0  0  0  0  0
   21.0503   -1.5629   -9.5963 C   0  0  0  0  0  0  0  0  0  0  0  0
   21.4599   -1.6060  -10.9088 C   0  0  0  0  0  0  0  0  0  0  0  0
   20.5190   -2.0528  -11.8921 C   0  0  0  0  0  0  0  0  0  0  0  0
   19.7567   -2.4283  -12.7065 N   0  0  0  0  0  0  0  0  0  0  0  0
   22.7248   -1.2328  -11.2563 C   0  0  0  0  0  0  0  0  0  0  0  0
   26.0793   -0.6517   -8.6510 C   0  0  0  0  0  0  0  0  0  0  0  0
   26.1504   -1.9217   -8.5467 O   0  0  0  0  0  0  0  0  0  0  0  0
   26.0849    0.0331   -7.4509 O   0  0  0  0  0  0  0  0  0  0  0  0
  2  1  1  6
  3  2  1  1
  2  4  1  0
  4  5  1  6
  5  6  1  1
  6  7  1  6
  7  8  1  0
  8  9  2  0
  9 10  1  0
 10 11  1  0
 10 12  2  0
 12 13  1  0
 13 14  1  0
 14 15  3  0
 13 16  2  0
  6 17  1  0
 17 18  2  0
 17 19  1  0
  6  2  1  0
 16  8  1  0
M  END
$$$$
