_rank5
     RDKit          3D

 19 20  0  0  0  0  0  0  0  0999 V2000
   27.6118   -2.0561  -10.5418 C   0  0  0  0  0  0  0  0  0  0  0  0
   27.2624   -0.6069  -10.3358 C   0  0  1  0  0  0  0  0  0  0  0  0
   28.3425    0.1127   -9.6265 C   0  0  0  0  0  0  0  0  0  0  0  0
   26.8653    0.1362  -11.5977 C   0  0  0  0  0  0  0  0  0  0  0  0
   25.9462    0.9402  -10.6760 C   0  0  0  0  0  0  0  0  0  0  0  0
   25.8664   -0.3501   -9.8201 C   0  0  1  0  0  0  0  0  0  0  0  0
   24.8834   -1.1635  -10.3949 O   0  0  0  0  0  0  0  0  0  0  0  0
   23.5365   -0.9274  -10.3064 C   0  0  0  0  0  0  0  0  0  0  0  0
   22.9366    0.1906   -9.7699 C   0  0  0  0  0  0  0  0  0  0  0  0
   21.5429    0.3197   -9.7371 C   0  0  0  0  0  0  0  0  0  0  0  0
   20.9991    1.4460   -9.1946 F   0  0  0  0  0  0  0  0  0  0  0  0
   20.7077   -0.6542  -10.2347 C   0  0  0  0  0  0  0  0  0  0  0  0
   21.2989   -1.7736  -10.7730 C   0  0  0  0  0  0  0  0  0  0  0  0
   20.4457   -2.7982  -11.2966 C   0  0  0  0  0  0  0  0  0  0  0  0
   19.7326   -3.6314  -11.7238 N   0  0  0  0  0  0  0  0  0  0  0  0
   22.6568   -1.8974  -10.8043 C   0  0  0  0  0  0  0  0  0  0  0  0
   25.7923   -0.0761   -8.3910 C   0  0  0  0  0  0  0  0  0  0  0  0
   25.9666    1.1284   -8.0067 O   0  0  0  0  0  0  0  0  0  0  0  0
   25.5492   -0.9824   -7.3768 O   0  0  0  0  0  0  0  0  0  0  0  0
  2  1  1  6
  3  2  1  1
  2  4  1  0
  4  5  1  6
  5  6  1  1
  6  7  1  6
  7  8  1  0
  8  9  2  0
  9 10  1  0
 10 11  1  0
 10 12  2  0
 12 13  1  0
 13 14  1  0
 14 15  3  0
 13 16  2  0
  6 17  1  0
 17 18  2  0
 17 19  1  0
  6  2  1  0
 16  8  1  0
M  END
$$$$
