_rank6
     RDKit          3D

 19 20  0  0  0  0  0  0  0  0999 V2000
   27.5318   -1.4570  -11.1080 C   0  0  0  0  0  0  0  0  0  0  0  0
   27.2984   -0.1730  -10.3586 C   0  0  1  0  0  0  0  0  0  0  0  0
   28.3393    0.0491   -9.3317 C   0  0  0  0  0  0  0  0  0  0  0  0
   27.1438    1.0553  -11.2361 C   0  0  0  0  0  0  0  0  0  0  0  0
   26.1923    1.5512  -10.1454 C   0  0  0  0  0  0  0  0  0  0  0  0
   25.8775    0.0531   -9.8994 C   0  0  1  0  0  0  0  0  0  0  0  0
   24.9057   -0.3207  -10.8344 O   0  0  0  0  0  0  0  0  0  0  0  0
   23.5620   -0.3768  -10.5716 C   0  0  0  0  0  0  0  0  0  0  0  0
   22.8061    0.6039   -9.9678 C   0  0  0  0  0  0  0  0  0  0  0  0
   21.4334    0.4314   -9.7535 C   0  0  0  0  0  0  0  0  0  0  0  0
   20.7306    1.4324   -9.1512 F   0  0  0  0  0  0  0  0  0  0  0  0
   20.7740   -0.7158  -10.1316 C   0  0  0  0  0  0  0  0  0  0  0  0
   21.5216   -1.6997  -10.7359 C   0  0  0  0  0  0  0  0  0  0  0  0
   20.8526   -2.9011  -11.1371 C   0  0  0  0  0  0  0  0  0  0  0  0
   20.3054   -3.8848  -11.4813 N   0  0  0  0  0  0  0  0  0  0  0  0
   22.8587   -1.5297  -10.9441 C   0  0  0  0  0  0  0  0  0  0  0  0
   25.6422   -0.2511   -8.4942 C   0  0  0  0  0  0  0  0  0  0  0  0
   25.6203   -1.4791   -8.1472 O   0  0  0  0  0  0  0  0  0  0  0  0
   25.4364    0.6490   -7.4662 O   0  0  0  0  0  0  0  0  0  0  0  0
  2  1  1  6
  3  2  1  1
  2  4  1  0
  4  5  1  6
  5  6  1  1
  6  7  1  6
  7  8  1  0
  8  9  2  0
  9 10  1  0
 10 11  1  0
 10 12  2  0
 12 13  1  0
 13 14  1  0
 14 15  3  0
 13 16  2  0
  6 17  1  0
 17 18  2  0
 17 19  1  0
  6  2  1  0
 16  8  1  0
M  END
$$$$
