_rank16
     RDKit          3D

 19 20  0  0  0  0  0  0  0  0999 V2000
   22.4972    0.9603  -12.3789 C   0  0  0  0  0  0  0  0  0  0  0  0
   21.8234   -0.3062  -11.9243 C   0  0  1  0  0  0  0  0  0  0  0  0
   20.3928   -0.0790  -11.6257 C   0  0  0  0  0  0  0  0  0  0  0  0
   21.9918   -1.4870  -12.8624 C   0  0  0  0  0  0  0  0  0  0  0  0
   21.9554   -2.3340  -11.5887 C   0  0  0  0  0  0  0  0  0  0  0  0
   22.5824   -1.1010  -10.8884 C   0  0  1  0  0  0  0  0  0  0  0  0
   23.9629   -1.1617  -11.1096 O   0  0  0  0  0  0  0  0  0  0  0  0
   24.9084   -0.7410  -10.2113 C   0  0  0  0  0  0  0  0  0  0  0  0
   24.7574    0.2566   -9.2733 C   0  0  0  0  0  0  0  0  0  0  0  0
   25.8007    0.5976   -8.4042 C   0  0  0  0  0  0  0  0  0  0  0  0
   25.6002    1.5928   -7.4942 F   0  0  0  0  0  0  0  0  0  0  0  0
   27.0196   -0.0401   -8.4412 C   0  0  0  0  0  0  0  0  0  0  0  0
   27.1782   -1.0381   -9.3746 C   0  0  0  0  0  0  0  0  0  0  0  0
   28.4401   -1.7139   -9.4278 C   0  0  0  0  0  0  0  0  0  0  0  0
   29.4699   -2.2824   -9.4683 N   0  0  0  0  0  0  0  0  0  0  0  0
   26.1607   -1.3691  -10.2202 C   0  0  0  0  0  0  0  0  0  0  0  0
   22.1051   -0.9236   -9.5233 C   0  0  0  0  0  0  0  0  0  0  0  0
   21.6457    0.2218   -9.1982 O   0  0  0  0  0  0  0  0  0  0  0  0
   22.0874   -1.8670   -8.5139 O   0  0  0  0  0  0  0  0  0  0  0  0
  2  1  1  6
  3  2  1  1
  2  4  1  0
  4  5  1  6
  5  6  1  1
  6  7  1  1
  7  8  1  0
  8  9  2  0
  9 10  1  0
 10 11  1  0
 10 12  2  0
 12 13  1  0
 13 14  1  0
 14 15  3  0
 13 16  2  0
  6 17  1  0
 17 18  2  0
 17 19  1  0
  6  2  1  0
 16  8  1  0
M  END
$$$$
