_rank2
     RDKit          3D

 19 20  0  0  0  0  0  0  0  0999 V2000
   26.6633   -1.6176  -11.5984 C   0  0  0  0  0  0  0  0  0  0  0  0
   26.7525   -0.4298  -10.6788 C   0  0  1  0  0  0  0  0  0  0  0  0
   27.8900   -0.5570   -9.7422 C   0  0  0  0  0  0  0  0  0  0  0  0
   26.7866    0.9153  -11.3802 C   0  0  0  0  0  0  0  0  0  0  0  0
   26.0396    1.4279  -10.1473 C   0  0  0  0  0  0  0  0  0  0  0  0
   25.4455   -0.0011  -10.0551 C   0  0  1  0  0  0  0  0  0  0  0  0
   24.3513   -0.0474  -10.9263 O   0  0  0  0  0  0  0  0  0  0  0  0
   23.0894   -0.4377  -10.5616 C   0  0  0  0  0  0  0  0  0  0  0  0
   22.6481   -1.7333  -10.4058 C   0  0  0  0  0  0  0  0  0  0  0  0
   21.3290   -2.0085  -10.0257 C   0  0  0  0  0  0  0  0  0  0  0  0
   20.9421   -3.3082   -9.8857 F   0  0  0  0  0  0  0  0  0  0  0  0
   20.4135   -1.0084   -9.7900 C   0  0  0  0  0  0  0  0  0  0  0  0
   20.8466    0.2883   -9.9427 C   0  0  0  0  0  0  0  0  0  0  0  0
   19.9080    1.3431   -9.7011 C   0  0  0  0  0  0  0  0  0  0  0  0
   19.1472    2.2200   -9.5069 N   0  0  0  0  0  0  0  0  0  0  0  0
   22.1320    0.5544  -10.3128 C   0  0  0  0  0  0  0  0  0  0  0  0
   25.2581   -0.4471   -8.6809 C   0  0  0  0  0  0  0  0  0  0  0  0
   25.1667   -1.7026   -8.4704 O   0  0  0  0  0  0  0  0  0  0  0  0
   25.1662    0.3419   -7.5503 O   0  0  0  0  0  0  0  0  0  0  0  0
  2  1  1  6
  3  2  1  1
  2  4  1  0
  4  5  1  6
  5  6  1  1
  6  7  1  6
  7  8  1  0
  8  9  2  0
  9 10  1  0
 10 11  1  0
 10 12  2  0
 12 13  1  0
 13 14  1  0
 14 15  3  0
 13 16  2  0
  6 17  1  0
 17 18  2  0
 17 19  1  0
  6  2  1  0
 16  8  1  0
M  END
$$$$
