_rank11
     RDKit          3D

 19 20  0  0  0  0  0  0  0  0999 V2000
   27.6185   -1.1502  -11.8266 C   0  0  0  0  0  0  0  0  0  0  0  0
   27.4138    0.0288  -10.9139 C   0  0  1  0  0  0  0  0  0  0  0  0
   28.6150    0.2889  -10.0912 C   0  0  0  0  0  0  0  0  0  0  0  0
   26.9578    1.2982  -11.6089 C   0  0  0  0  0  0  0  0  0  0  0  0
   26.2047    1.5820  -10.3077 C   0  0  0  0  0  0  0  0  0  0  0  0
   26.1019    0.0415  -10.1659 C   0  0  1  0  0  0  0  0  0  0  0  0
   25.0023   -0.3681  -10.9286 O   0  0  0  0  0  0  0  0  0  0  0  0
   23.7555   -0.6144  -10.4162 C   0  0  0  0  0  0  0  0  0  0  0  0
   23.2433   -0.1163   -9.2384 C   0  0  0  0  0  0  0  0  0  0  0  0
   21.9475   -0.4393   -8.8180 C   0  0  0  0  0  0  0  0  0  0  0  0
   21.4881    0.0796   -7.6440 F   0  0  0  0  0  0  0  0  0  0  0  0
   21.1258   -1.2631   -9.5528 C   0  0  0  0  0  0  0  0  0  0  0  0
   21.6295   -1.7641  -10.7307 C   0  0  0  0  0  0  0  0  0  0  0  0
   20.7886   -2.6232  -11.5097 C   0  0  0  0  0  0  0  0  0  0  0  0
   20.0978   -3.3188  -12.1611 N   0  0  0  0  0  0  0  0  0  0  0  0
   22.8920   -1.4481  -11.1387 C   0  0  0  0  0  0  0  0  0  0  0  0
   26.1922   -0.4055   -8.7822 C   0  0  0  0  0  0  0  0  0  0  0  0
   26.3202   -1.6572   -8.5688 O   0  0  0  0  0  0  0  0  0  0  0  0
   26.1567    0.3792   -7.6454 O   0  0  0  0  0  0  0  0  0  0  0  0
  2  1  1  6
  3  2  1  1
  2  4  1  0
  4  5  1  6
  5  6  1  1
  6  7  1  6
  7  8  1  0
  8  9  2  0
  9 10  1  0
 10 11  1  0
 10 12  2  0
 12 13  1  0
 13 14  1  0
 14 15  3  0
 13 16  2  0
  6 17  1  0
 17 18  2  0
 17 19  1  0
  6  2  1  0
 16  8  1  0
M  END
$$$$
