_rank18
     RDKit          3D

 17 18  0  0  0  0  0  0  0  0999 V2000
   23.3734   -1.2640  -14.0683 C   0  0  0  0  0  0  0  0  0  0  0  0
   23.5802   -1.5293  -12.7162 O   0  0  0  0  0  0  0  0  0  0  0  0
   22.7342   -0.7000  -11.9851 C   0  0  1  0  0  0  0  0  0  0  0  0
   21.3002   -1.0846  -12.2812 C   0  0  0  0  0  0  0  0  0  0  0  0
   20.6359   -0.4329  -11.2425 O   0  0  0  0  0  0  0  0  0  0  0  0
   21.3760   -0.7264  -10.0845 C   0  0  0  0  0  0  0  0  0  0  0  0
   22.7906   -0.9746  -10.5129 C   0  0  2  0  0  0  0  0  0  0  0  0
   23.7507   -0.2937   -9.8138 O   0  0  0  0  0  0  0  0  0  0  0  0
   24.9969   -0.6183   -9.4143 C   0  0  0  0  0  0  0  0  0  0  0  0
   25.3576   -1.9325   -9.2583 C   0  0  0  0  0  0  0  0  0  0  0  0
   26.6039   -2.3611   -8.8548 C   0  0  0  0  0  0  0  0  0  0  0  0
   26.9537   -3.6465   -8.7019 F   0  0  0  0  0  0  0  0  0  0  0  0
   27.5549   -1.3735   -8.5905 C   0  0  0  0  0  0  0  0  0  0  0  0
   27.2108   -0.0496   -8.7419 C   0  0  0  0  0  0  0  0  0  0  0  0
   28.2283    0.9335   -8.4534 C   0  0  0  0  0  0  0  0  0  0  0  0
   29.0330    1.7134   -8.2452 N   0  0  0  0  0  0  0  0  0  0  0  0
   25.9578    0.3444   -9.1460 C   0  0  0  0  0  0  0  0  0  0  0  0
  1  2  1  6
  3  2  1  6
  3  4  1  0
  4  5  1  6
  6  5  1  1
  6  7  1  0
  7  8  1  1
  8  9  1  0
  9 10  2  0
 10 11  1  0
 11 12  1  0
 11 13  2  0
 13 14  1  0
 14 15  1  0
 15 16  3  0
 14 17  2  0
  7  3  1  0
 17  9  1  0
M  END
$$$$
