_rank16
     RDKit          3D

 17 18  0  0  0  0  0  0  0  0999 V2000
   27.6766    3.1076  -11.1192 C   0  0  0  0  0  0  0  0  0  0  0  0
   26.4614    2.4434  -11.2723 O   0  0  0  0  0  0  0  0  0  0  0  0
   26.7348    1.1497  -11.7076 C   0  0  1  0  0  0  0  0  0  0  0  0
   28.1794    0.8250  -11.3922 C   0  0  0  0  0  0  0  0  0  0  0  0
   28.1766   -0.5601  -11.5546 O   0  0  0  0  0  0  0  0  0  0  0  0
   27.0327   -1.0128  -10.8753 C   0  0  0  0  0  0  0  0  0  0  0  0
   26.0368    0.1072  -10.8878 C   0  0  2  0  0  0  0  0  0  0  0  0
   24.7731   -0.2266  -11.2948 O   0  0  0  0  0  0  0  0  0  0  0  0
   23.6630   -0.5985  -10.6258 C   0  0  0  0  0  0  0  0  0  0  0  0
   23.6915   -0.7564   -9.2635 C   0  0  0  0  0  0  0  0  0  0  0  0
   22.6111   -1.1331   -8.4950 C   0  0  0  0  0  0  0  0  0  0  0  0
   22.6418   -1.2879   -7.1634 F   0  0  0  0  0  0  0  0  0  0  0  0
   21.4099   -1.3661   -9.1676 C   0  0  0  0  0  0  0  0  0  0  0  0
   21.3627   -1.2124  -10.5344 C   0  0  0  0  0  0  0  0  0  0  0  0
   20.0984   -1.4680  -11.1836 C   0  0  0  0  0  0  0  0  0  0  0  0
   19.1057   -1.6574  -11.7107 N   0  0  0  0  0  0  0  0  0  0  0  0
   22.4594   -0.8355  -11.2718 C   0  0  0  0  0  0  0  0  0  0  0  0
  1  2  1  6
  3  2  1  1
  3  4  1  0
  4  5  1  6
  6  5  1  1
  6  7  1  0
  7  8  1  6
  8  9  1  0
  9 10  2  0
 10 11  1  0
 11 12  1  0
 11 13  2  0
 13 14  1  0
 14 15  1  0
 15 16  3  0
 14 17  2  0
  7  3  1  0
 17  9  1  0
M  END
$$$$
