_rank2
     RDKit          3D

 17 18  0  0  0  0  0  0  0  0999 V2000
   26.5859    1.8858  -12.8258 C   0  0  0  0  0  0  0  0  0  0  0  0
   25.5903    1.4677  -11.9453 O   0  0  0  0  0  0  0  0  0  0  0  0
   26.0096    0.2743  -11.3638 C   0  0  1  0  0  0  0  0  0  0  0  0
   27.1917    0.5610  -10.4624 C   0  0  0  0  0  0  0  0  0  0  0  0
   27.2459   -0.6188   -9.7208 O   0  0  0  0  0  0  0  0  0  0  0  0
   25.9200   -0.8763   -9.3326 C   0  0  0  0  0  0  0  0  0  0  0  0
   25.0270   -0.2545  -10.3633 C   0  0  2  0  0  0  0  0  0  0  0  0
   24.0426   -1.0643  -10.8622 O   0  0  0  0  0  0  0  0  0  0  0  0
   22.6964   -1.0143  -10.8020 C   0  0  0  0  0  0  0  0  0  0  0  0
   21.9386   -2.0401  -11.3070 C   0  0  0  0  0  0  0  0  0  0  0  0
   20.5610   -2.0784  -11.2918 C   0  0  0  0  0  0  0  0  0  0  0  0
   19.8223   -3.0819  -11.7873 F   0  0  0  0  0  0  0  0  0  0  0  0
   19.9064   -0.9871  -10.7172 C   0  0  0  0  0  0  0  0  0  0  0  0
   20.6507    0.0512  -10.2052 C   0  0  0  0  0  0  0  0  0  0  0  0
   19.9272    1.1578   -9.6246 C   0  0  0  0  0  0  0  0  0  0  0  0
   19.3534    2.0206   -9.1497 N   0  0  0  0  0  0  0  0  0  0  0  0
   22.0245    0.0585  -10.2366 C   0  0  0  0  0  0  0  0  0  0  0  0
  1  2  1  6
  3  2  1  1
  3  4  1  0
  4  5  1  6
  6  5  1  1
  6  7  1  0
  7  8  1  6
  8  9  1  0
  9 10  2  0
 10 11  1  0
 11 12  1  0
 11 13  2  0
 13 14  1  0
 14 15  1  0
 15 16  3  0
 14 17  2  0
  7  3  1  0
 17  9  1  0
M  END
$$$$
