_rank7
     RDKit          3D

 17 18  0  0  0  0  0  0  0  0999 V2000
   26.8593    2.3705  -12.0814 C   0  0  0  0  0  0  0  0  0  0  0  0
   26.5797    1.2743  -11.2681 O   0  0  0  0  0  0  0  0  0  0  0  0
   25.5563    0.5474  -11.8699 C   0  0  1  0  0  0  0  0  0  0  0  0
   26.1629   -0.6240  -12.6127 C   0  0  0  0  0  0  0  0  0  0  0  0
   25.0301   -1.4064  -12.8349 O   0  0  0  0  0  0  0  0  0  0  0  0
   24.3503   -1.4358  -11.6053 C   0  0  0  0  0  0  0  0  0  0  0  0
   24.7016   -0.1759  -10.8736 C   0  0  2  0  0  0  0  0  0  0  0  0
   23.6443    0.5312  -10.3675 O   0  0  0  0  0  0  0  0  0  0  0  0
   22.3617    0.2040  -10.1107 C   0  0  0  0  0  0  0  0  0  0  0  0
   22.0093   -1.1013   -9.8793 C   0  0  0  0  0  0  0  0  0  0  0  0
   20.7281   -1.5317   -9.6096 C   0  0  0  0  0  0  0  0  0  0  0  0
   20.3860   -2.8086   -9.3849 F   0  0  0  0  0  0  0  0  0  0  0  0
   19.7301   -0.5558   -9.5729 C   0  0  0  0  0  0  0  0  0  0  0  0
   20.0652    0.7591   -9.8026 C   0  0  0  0  0  0  0  0  0  0  0  0
   18.9971    1.7297   -9.7568 C   0  0  0  0  0  0  0  0  0  0  0  0
   18.1553    2.4961   -9.7008 N   0  0  0  0  0  0  0  0  0  0  0  0
   21.3538    1.1552  -10.0693 C   0  0  0  0  0  0  0  0  0  0  0  0
  1  2  1  6
  3  2  1  1
  3  4  1  0
  4  5  1  6
  6  5  1  1
  6  7  1  0
  7  8  1  6
  8  9  1  0
  9 10  2  0
 10 11  1  0
 11 12  1  0
 11 13  2  0
 13 14  1  0
 14 15  1  0
 15 16  3  0
 14 17  2  0
  7  3  1  0
 17  9  1  0
M  END
$$$$
