_rank1
     RDKit          3D

 17 18  0  0  0  0  0  0  0  0999 V2000
   26.8172    0.7564  -13.0009 C   0  0  0  0  0  0  0  0  0  0  0  0
   25.7243    0.9405  -12.1565 O   0  0  0  0  0  0  0  0  0  0  0  0
   25.8560    0.0553  -11.0901 C   0  0  1  0  0  0  0  0  0  0  0  0
   26.8189    0.6466  -10.0827 C   0  0  0  0  0  0  0  0  0  0  0  0
   26.5621   -0.1585   -8.9733 O   0  0  0  0  0  0  0  0  0  0  0  0
   25.1616   -0.2253   -8.8773 C   0  0  0  0  0  0  0  0  0  0  0  0
   24.6124   -0.0324  -10.2584 C   0  0  2  0  0  0  0  0  0  0  0  0
   23.6860   -0.9554  -10.6631 O   0  0  0  0  0  0  0  0  0  0  0  0
   22.3377   -0.9696  -10.6447 C   0  0  0  0  0  0  0  0  0  0  0  0
   21.6464   -2.0480  -11.1352 C   0  0  0  0  0  0  0  0  0  0  0  0
   20.2724   -2.1534  -11.1596 C   0  0  0  0  0  0  0  0  0  0  0  0
   19.5988   -3.2083  -11.6408 F   0  0  0  0  0  0  0  0  0  0  0  0
   19.5484   -1.0767  -10.6439 C   0  0  0  0  0  0  0  0  0  0  0  0
   20.2254    0.0138  -10.1473 C   0  0  0  0  0  0  0  0  0  0  0  0
   19.4315    1.1026   -9.6281 C   0  0  0  0  0  0  0  0  0  0  0  0
   18.7889    1.9504   -9.2190 N   0  0  0  0  0  0  0  0  0  0  0  0
   21.5976    0.0876  -10.1380 C   0  0  0  0  0  0  0  0  0  0  0  0
  1  2  1  6
  3  2  1  6
  3  4  1  0
  4  5  1  6
  6  5  1  1
  6  7  1  0
  7  8  1  6
  8  9  1  0
  9 10  2  0
 10 11  1  0
 11 12  1  0
 11 13  2  0
 13 14  1  0
 14 15  1  0
 15 16  3  0
 14 17  2  0
  7  3  1  0
 17  9  1  0
M  END
$$$$
