_rank8
     RDKit          3D

 17 18  0  0  0  0  0  0  0  0999 V2000
   20.6608    0.6859  -12.7330 C   0  0  0  0  0  0  0  0  0  0  0  0
   21.2112    0.9900  -11.4897 O   0  0  0  0  0  0  0  0  0  0  0  0
   20.9760   -0.0905  -10.6439 C   0  0  1  0  0  0  0  0  0  0  0  0
   19.7449   -0.8275  -11.1266 C   0  0  0  0  0  0  0  0  0  0  0  0
   19.8645   -2.0245  -10.4210 O   0  0  0  0  0  0  0  0  0  0  0  0
   21.2062   -2.4142  -10.5728 C   0  0  0  0  0  0  0  0  0  0  0  0
   22.0095   -1.1667  -10.7844 C   0  0  2  0  0  0  0  0  0  0  0  0
   23.1208   -1.0353   -9.9960 O   0  0  0  0  0  0  0  0  0  0  0  0
   24.3716   -0.5953  -10.2410 C   0  0  0  0  0  0  0  0  0  0  0  0
   24.8460   -0.5267  -11.5262 C   0  0  0  0  0  0  0  0  0  0  0  0
   26.1068   -0.0922  -11.8746 C   0  0  0  0  0  0  0  0  0  0  0  0
   26.5686   -0.0272  -13.1318 F   0  0  0  0  0  0  0  0  0  0  0  0
   26.9476    0.3028  -10.8322 C   0  0  0  0  0  0  0  0  0  0  0  0
   26.4884    0.2409   -9.5363 C   0  0  0  0  0  0  0  0  0  0  0  0
   27.3969    0.6575   -8.4940 C   0  0  0  0  0  0  0  0  0  0  0  0
   28.1123    0.9682   -7.6629 N   0  0  0  0  0  0  0  0  0  0  0  0
   25.2245   -0.1980   -9.2227 C   0  0  0  0  0  0  0  0  0  0  0  0
  1  2  1  6
  3  2  1  6
  3  4  1  0
  4  5  1  6
  6  5  1  1
  6  7  1  0
  7  8  1  1
  8  9  1  0
  9 10  2  0
 10 11  1  0
 11 12  1  0
 11 13  2  0
 13 14  1  0
 14 15  1  0
 15 16  3  0
 14 17  2  0
  7  3  1  0
 17  9  1  0
M  END
$$$$
