_rank17
     RDKit          3D

 17 18  0  0  0  0  0  0  0  0999 V2000
   23.0039   -2.8585  -13.2092 C   0  0  0  0  0  0  0  0  0  0  0  0
   22.1667   -2.5229  -12.1473 O   0  0  0  0  0  0  0  0  0  0  0  0
   22.1419   -1.1346  -12.0466 C   0  0  1  0  0  0  0  0  0  0  0  0
   20.7003   -0.6773  -11.9780 C   0  0  0  0  0  0  0  0  0  0  0  0
   20.8642    0.6347  -11.5342 O   0  0  0  0  0  0  0  0  0  0  0  0
   21.7860    0.5579  -10.4762 C   0  0  0  0  0  0  0  0  0  0  0  0
   22.6456   -0.6447  -10.7228 C   0  0  2  0  0  0  0  0  0  0  0  0
   23.9959   -0.4370  -10.6364 O   0  0  0  0  0  0  0  0  0  0  0  0
   24.8413   -0.3269   -9.5917 C   0  0  0  0  0  0  0  0  0  0  0  0
   24.4390   -0.6845   -8.3301 C   0  0  0  0  0  0  0  0  0  0  0  0
   25.2292   -0.6070   -7.2036 C   0  0  0  0  0  0  0  0  0  0  0  0
   24.8331   -0.9561   -5.9710 F   0  0  0  0  0  0  0  0  0  0  0  0
   26.5294   -0.1285   -7.3774 C   0  0  0  0  0  0  0  0  0  0  0  0
   26.9504    0.2349   -8.6363 C   0  0  0  0  0  0  0  0  0  0  0  0
   28.3022    0.7265   -8.7633 C   0  0  0  0  0  0  0  0  0  0  0  0
   29.3754    1.0960   -8.8675 N   0  0  0  0  0  0  0  0  0  0  0  0
   26.1364    0.1455   -9.7398 C   0  0  0  0  0  0  0  0  0  0  0  0
  1  2  1  6
  3  2  1  1
  3  4  1  0
  4  5  1  6
  6  5  1  1
  6  7  1  0
  7  8  1  6
  8  9  1  0
  9 10  2  0
 10 11  1  0
 11 12  1  0
 11 13  2  0
 13 14  1  0
 14 15  1  0
 15 16  3  0
 14 17  2  0
  7  3  1  0
 17  9  1  0
M  END
$$$$
