_rank12
     RDKit          3D

 17 18  0  0  0  0  0  0  0  0999 V2000
   20.5061   -0.7285  -13.3752 C   0  0  0  0  0  0  0  0  0  0  0  0
   21.4764   -1.3986  -12.6330 O   0  0  0  0  0  0  0  0  0  0  0  0
   21.2480   -1.1247  -11.2873 C   0  0  1  0  0  0  0  0  0  0  0  0
   20.2007   -2.0855  -10.7660 C   0  0  0  0  0  0  0  0  0  0  0  0
   20.3555   -1.9182   -9.3901 O   0  0  0  0  0  0  0  0  0  0  0  0
   21.7417   -1.9619   -9.1630 C   0  0  0  0  0  0  0  0  0  0  0  0
   22.4123   -1.4948  -10.4192 C   0  0  2  0  0  0  0  0  0  0  0  0
   23.3687   -0.5288  -10.2577 O   0  0  0  0  0  0  0  0  0  0  0  0
   24.7126   -0.5772  -10.1577 C   0  0  0  0  0  0  0  0  0  0  0  0
   25.4682   -1.0959  -11.1783 C   0  0  0  0  0  0  0  0  0  0  0  0
   26.8433   -1.1878  -11.1674 C   0  0  0  0  0  0  0  0  0  0  0  0
   27.5797   -1.6964  -12.1660 F   0  0  0  0  0  0  0  0  0  0  0  0
   27.4977   -0.7139  -10.0286 C   0  0  0  0  0  0  0  0  0  0  0  0
   26.7557   -0.1899   -8.9947 C   0  0  0  0  0  0  0  0  0  0  0  0
   27.4786    0.2838   -7.8380 C   0  0  0  0  0  0  0  0  0  0  0  0
   28.0578    0.6399   -6.9231 N   0  0  0  0  0  0  0  0  0  0  0  0
   25.3842   -0.1131   -9.0372 C   0  0  0  0  0  0  0  0  0  0  0  0
  1  2  1  6
  3  2  1  6
  3  4  1  0
  4  5  1  6
  6  5  1  1
  6  7  1  0
  7  8  1  1
  8  9  1  0
  9 10  2  0
 10 11  1  0
 11 12  1  0
 11 13  2  0
 13 14  1  0
 14 15  1  0
 15 16  3  0
 14 17  2  0
  7  3  1  0
 17  9  1  0
M  END
$$$$
