_rank8
     RDKit          3D

 19 20  0  0  0  0  0  0  0  0999 V2000
   27.7516    1.0752  -13.1701 C   0  0  0  0  0  0  0  0  0  0  0  0
   28.0630    0.1955  -12.1076 O   0  0  0  0  0  0  0  0  0  0  0  0
   26.8884   -0.0610  -11.4544 C   0  0  2  0  0  0  0  0  0  0  0  0
   25.6688    0.4963  -12.1739 C   0  0  0  0  0  0  0  0  0  0  0  0
   24.6164    0.0290  -11.1500 C   0  0  2  0  0  0  0  0  0  0  0  0
   23.3683    0.5353  -11.4124 O   0  0  0  0  0  0  0  0  0  0  0  0
   22.1959    0.0797  -10.8354 C   0  0  0  0  0  0  0  0  0  0  0  0
   21.9996   -1.3123  -10.8625 C   0  0  0  0  0  0  0  0  0  0  0  0
   20.8712   -1.8333  -10.3149 C   0  0  0  0  0  0  0  0  0  0  0  0
   20.6997   -3.1806  -10.3509 F   0  0  0  0  0  0  0  0  0  0  0  0
   19.9136   -1.0339   -9.7334 C   0  0  0  0  0  0  0  0  0  0  0  0
   20.1152    0.3298   -9.7118 C   0  0  0  0  0  0  0  0  0  0  0  0
   19.1347    1.1879   -9.1126 C   0  0  0  0  0  0  0  0  0  0  0  0
   18.3480    1.8935   -8.6093 N   0  0  0  0  0  0  0  0  0  0  0  0
   21.2522    0.8945  -10.2598 C   0  0  0  0  0  0  0  0  0  0  0  0
   25.2513    0.6099   -9.8850 C   0  0  0  0  0  0  0  0  0  0  0  0
   26.7486    0.5787  -10.1174 C   0  0  1  0  0  0  0  0  0  0  0  0
   27.3816   -0.1403   -9.1050 O   0  0  0  0  0  0  0  0  0  0  0  0
   26.4928   -0.3077   -8.0564 C   0  0  0  0  0  0  0  0  0  0  0  0
  1  2  1  6
  3  2  1  6
  4  3  1  6
  4  5  1  0
  5  6  1  6
  6  7  1  0
  7  8  2  0
  8  9  1  0
  9 10  1  0
  9 11  2  0
 11 12  1  0
 12 13  1  0
 13 14  3  0
 12 15  2  0
 16  5  1  6
 16 17  1  0
 17 18  1  1
 19 18  1  6
 17  3  1  0
 15  7  1  0
M  END
$$$$
