_rank5
     RDKit          3D

 19 20  0  0  0  0  0  0  0  0999 V2000
   27.7312    0.7271  -13.5508 C   0  0  0  0  0  0  0  0  0  0  0  0
   28.0968    0.3046  -12.2517 O   0  0  0  0  0  0  0  0  0  0  0  0
   26.9364   -0.0254  -11.6061 C   0  0  2  0  0  0  0  0  0  0  0  0
   25.7395    0.7915  -12.0703 C   0  0  0  0  0  0  0  0  0  0  0  0
   24.6993    0.1522  -11.1303 C   0  0  2  0  0  0  0  0  0  0  0  0
   23.4913    0.8021  -11.1652 O   0  0  0  0  0  0  0  0  0  0  0  0
   22.2997    0.2758  -10.6982 C   0  0  0  0  0  0  0  0  0  0  0  0
   22.2475   -1.1253  -10.5927 C   0  0  0  0  0  0  0  0  0  0  0  0
   21.1100   -1.7142  -10.1415 C   0  0  0  0  0  0  0  0  0  0  0  0
   21.0791   -3.0691  -10.0466 F   0  0  0  0  0  0  0  0  0  0  0  0
   20.0053   -0.9749   -9.7844 C   0  0  0  0  0  0  0  0  0  0  0  0
   20.0662    0.3983   -9.8914 C   0  0  0  0  0  0  0  0  0  0  0  0
   18.9307    1.1946   -9.5265 C   0  0  0  0  0  0  0  0  0  0  0  0
   18.0103    1.8593   -9.2413 N   0  0  0  0  0  0  0  0  0  0  0  0
   21.2080    1.0312  -10.3468 C   0  0  0  0  0  0  0  0  0  0  0  0
   25.4444    0.3307   -9.8060 C   0  0  0  0  0  0  0  0  0  0  0  0
   26.9197    0.2491  -10.1430 C   0  0  1  0  0  0  0  0  0  0  0  0
   27.5326   -0.7561   -9.3971 O   0  0  0  0  0  0  0  0  0  0  0  0
   27.0600   -0.6956   -8.0968 C   0  0  0  0  0  0  0  0  0  0  0  0
  1  2  1  6
  3  2  1  6
  4  3  1  6
  4  5  1  0
  5  6  1  1
  6  7  1  0
  7  8  2  0
  8  9  1  0
  9 10  1  0
  9 11  2  0
 11 12  1  0
 12 13  1  0
 13 14  3  0
 12 15  2  0
 16  5  1  6
 16 17  1  0
 17 18  1  1
 19 18  1  6
 17  3  1  0
 15  7  1  0
M  END
$$$$
