_rank16
     RDKit          3D

 19 20  0  0  0  0  0  0  0  0999 V2000
   28.2401    2.6241  -10.6042 C   0  0  0  0  0  0  0  0  0  0  0  0
   28.2766    1.4473   -9.8210 O   0  0  0  0  0  0  0  0  0  0  0  0
   27.2377    0.6633  -10.2433 C   0  0  2  0  0  0  0  0  0  0  0  0
   25.8991    1.3868  -10.2339 C   0  0  0  0  0  0  0  0  0  0  0  0
   25.0437    0.2064  -10.7332 C   0  0  2  0  0  0  0  0  0  0  0  0
   23.6987    0.4717  -10.6750 O   0  0  0  0  0  0  0  0  0  0  0  0
   22.7019   -0.4812  -10.7909 C   0  0  0  0  0  0  0  0  0  0  0  0
   22.6998   -1.2246  -11.9842 C   0  0  0  0  0  0  0  0  0  0  0  0
   21.7508   -2.1783  -12.1694 C   0  0  0  0  0  0  0  0  0  0  0  0
   21.7654   -2.8861  -13.3290 F   0  0  0  0  0  0  0  0  0  0  0  0
   20.7897   -2.4368  -11.2186 C   0  0  0  0  0  0  0  0  0  0  0  0
   20.8001   -1.7024  -10.0518 C   0  0  0  0  0  0  0  0  0  0  0  0
   19.8111   -1.9495   -9.0430 C   0  0  0  0  0  0  0  0  0  0  0  0
   18.9894   -2.1448   -8.2325 N   0  0  0  0  0  0  0  0  0  0  0  0
   21.7514   -0.7239   -9.8298 C   0  0  0  0  0  0  0  0  0  0  0  0
   25.4963   -0.8501   -9.7233 C   0  0  0  0  0  0  0  0  0  0  0  0
   26.9336   -0.5119   -9.3816 C   0  0  1  0  0  0  0  0  0  0  0  0
   27.7629   -1.6017   -9.6407 O   0  0  0  0  0  0  0  0  0  0  0  0
   27.9331   -2.3192   -8.4686 C   0  0  0  0  0  0  0  0  0  0  0  0
  1  2  1  6
  3  2  1  1
  4  3  1  6
  4  5  1  0
  5  6  1  1
  6  7  1  0
  7  8  2  0
  8  9  1  0
  9 10  1  0
  9 11  2  0
 11 12  1  0
 12 13  1  0
 13 14  3  0
 12 15  2  0
 16  5  1  6
 16 17  1  0
 17 18  1  6
 19 18  1  6
 17  3  1  0
 15  7  1  0
M  END
$$$$
