_rank14
     RDKit          3D

 19 20  0  0  0  0  0  0  0  0999 V2000
   27.2296    0.3165  -14.0467 C   0  0  0  0  0  0  0  0  0  0  0  0
   27.7908    0.4923  -12.7606 O   0  0  0  0  0  0  0  0  0  0  0  0
   26.7941    0.2335  -11.8596 C   0  0  2  0  0  0  0  0  0  0  0  0
   25.5973    1.1616  -12.0072 C   0  0  0  0  0  0  0  0  0  0  0  0
   24.7601    0.5739  -10.8549 C   0  0  2  0  0  0  0  0  0  0  0  0
   23.6406    1.3204  -10.5861 O   0  0  0  0  0  0  0  0  0  0  0  0
   22.4359    0.8028  -10.1435 C   0  0  0  0  0  0  0  0  0  0  0  0
   22.5245   -0.2803   -9.2514 C   0  0  0  0  0  0  0  0  0  0  0  0
   21.3833   -0.8410   -8.7741 C   0  0  0  0  0  0  0  0  0  0  0  0
   21.4896   -1.8866   -7.9132 F   0  0  0  0  0  0  0  0  0  0  0  0
   20.1407   -0.3765   -9.1410 C   0  0  0  0  0  0  0  0  0  0  0  0
   20.0643    0.6860  -10.0163 C   0  0  0  0  0  0  0  0  0  0  0  0
   18.7833    1.1915  -10.4165 C   0  0  0  0  0  0  0  0  0  0  0  0
   17.7443    1.6231  -10.7395 N   0  0  0  0  0  0  0  0  0  0  0  0
   21.2055    1.2810  -10.5218 C   0  0  0  0  0  0  0  0  0  0  0  0
   25.8129    0.6416   -9.7468 C   0  0  0  0  0  0  0  0  0  0  0  0
   27.1519    0.4533  -10.4313 C   0  0  1  0  0  0  0  0  0  0  0  0
   27.8347   -0.6256   -9.8726 O   0  0  0  0  0  0  0  0  0  0  0  0
   28.2021   -0.2969   -8.5785 C   0  0  0  0  0  0  0  0  0  0  0  0
  1  2  1  6
  3  2  1  6
  4  3  1  6
  4  5  1  0
  5  6  1  1
  6  7  1  0
  7  8  2  0
  8  9  1  0
  9 10  1  0
  9 11  2  0
 11 12  1  0
 12 13  1  0
 13 14  3  0
 12 15  2  0
 16  5  1  6
 16 17  1  0
 17 18  1  1
 19 18  1  6
 17  3  1  0
 15  7  1  0
M  END
$$$$
