_rank6
     RDKit          3D

 19 20  0  0  0  0  0  0  0  0999 V2000
   26.0136    3.7779  -10.2669 C   0  0  0  0  0  0  0  0  0  0  0  0
   25.2024    2.8489   -9.5750 O   0  0  0  0  0  0  0  0  0  0  0  0
   25.3531    1.6471  -10.2115 C   0  0  2  0  0  0  0  0  0  0  0  0
   24.0500    0.8729  -10.3459 C   0  0  0  0  0  0  0  0  0  0  0  0
   24.6359   -0.3588  -11.0626 C   0  0  2  0  0  0  0  0  0  0  0  0
   23.7238   -1.3765  -11.1869 O   0  0  0  0  0  0  0  0  0  0  0  0
   22.3529   -1.2237  -11.0767 C   0  0  0  0  0  0  0  0  0  0  0  0
   21.5740   -2.0831  -11.8716 C   0  0  0  0  0  0  0  0  0  0  0  0
   20.2202   -1.9915  -11.8166 C   0  0  0  0  0  0  0  0  0  0  0  0
   19.4850   -2.8306  -12.5920 F   0  0  0  0  0  0  0  0  0  0  0  0
   19.5893   -1.0786  -11.0023 C   0  0  0  0  0  0  0  0  0  0  0  0
   20.3617   -0.2402  -10.2267 C   0  0  0  0  0  0  0  0  0  0  0  0
   19.7322    0.7211   -9.3686 C   0  0  0  0  0  0  0  0  0  0  0  0
   19.2217    1.5201   -8.6823 N   0  0  0  0  0  0  0  0  0  0  0  0
   21.7425   -0.3058  -10.2577 C   0  0  0  0  0  0  0  0  0  0  0  0
   25.7686   -0.6777  -10.0848 C   0  0  0  0  0  0  0  0  0  0  0  0
   26.2049    0.6523   -9.5036 C   0  0  1  0  0  0  0  0  0  0  0  0
   27.5666    0.8536   -9.7218 O   0  0  0  0  0  0  0  0  0  0  0  0
   28.2597   -0.2500   -9.2534 C   0  0  0  0  0  0  0  0  0  0  0  0
  1  2  1  6
  3  2  1  1
  4  3  1  6
  4  5  1  0
  5  6  1  1
  6  7  1  0
  7  8  2  0
  8  9  1  0
  9 10  1  0
  9 11  2  0
 11 12  1  0
 12 13  1  0
 13 14  3  0
 12 15  2  0
 16  5  1  6
 16 17  1  0
 17 18  1  6
 19 18  1  6
 17  3  1  0
 15  7  1  0
M  END
$$$$
