_rank16
     RDKit          3D

 23 25  0  0  0  0  0  0  0  0999 V2000
   16.2030  -43.1068   15.6927 C   0  0  0  0  0  0  0  0  0  0  0  0
   16.5789  -41.6537   15.3969 C   0  0  0  0  0  0  0  0  0  0  0  0
   15.7225  -41.0596   14.4182 N   0  0  0  0  0  0  0  0  0  0  0  0
   15.5171  -39.6376   14.4343 C   0  0  0  0  0  0  0  0  0  0  0  0
   16.4465  -38.9113   15.3559 C   0  0  0  0  0  0  0  0  0  0  0  0
   15.0838  -41.8628   13.4443 C   0  0  0  0  0  0  0  0  0  0  0  0
   14.4912  -42.9075   13.8202 O   0  0  0  0  0  0  0  0  0  0  0  0
   15.0809  -41.5426   12.0534 N   0  0  0  0  0  0  0  0  0  0  0  0
   14.2930  -42.3036   11.0806 C   0  0  2  0  0  0  0  0  0  0  0  0
   15.1950  -43.3431   10.4028 C   0  0  0  0  0  0  0  0  0  0  0  0
   15.0346  -43.1451    8.9313 C   0  0  0  0  0  0  0  0  0  0  0  0
   14.2408  -41.9817    8.7370 N   0  0  0  0  0  0  0  0  0  0  0  0
   13.3622  -42.1137    7.6394 C   0  0  0  0  0  0  0  0  0  0  0  0
   12.4375  -40.8926    7.5250 C   0  0  0  0  0  0  0  0  0  0  0  0
   11.6763  -40.9288    8.8009 C   0  0  0  0  0  0  0  0  0  0  0  0
   10.2954  -40.6706    8.7946 C   0  0  0  0  0  0  0  0  0  0  0  0
    9.5771  -40.3611    7.5584 C   0  0  0  0  0  0  0  0  0  0  0  0
    9.6110  -40.7126    9.9894 C   0  0  0  0  0  0  0  0  0  0  0  0
   10.2809  -41.0055   11.1741 C   0  0  0  0  0  0  0  0  0  0  0  0
   11.6244  -41.2570   11.1833 C   0  0  0  0  0  0  0  0  0  0  0  0
   12.3383  -41.2177    9.9683 C   0  0  0  0  0  0  0  0  0  0  0  0
   13.7635  -41.4713    9.9574 C   0  0  1  0  0  0  0  0  0  0  0  0
   14.4347  -40.0886   10.1318 C   0  0  0  0  0  0  0  0  0  0  0  0
  1  2  1  6
  2  3  1  1
  4  3  1  1
  5  4  1  6
  3  6  1  0
  6  7  2  0
  6  8  1  0
  9  8  1  1
  9 10  1  0
 10 11  1  6
 11 12  1  1
 13 12  1  1
 13 14  1  0
 14 15  1  6
 15 16  2  0
 17 16  1  1
 16 18  1  0
 18 19  2  0
 19 20  1  0
 20 21  2  0
 22 21  1  6
 23 22  1  6
 22  9  1  0
 22 12  1  0
 21 15  1  0
M  END
$$$$
