_rank13
     RDKit          3D

 23 25  0  0  0  0  0  0  0  0999 V2000
   12.7799  -27.0762   34.1707 C   0  0  0  0  0  0  0  0  0  0  0  0
   12.5601  -25.9321   33.1792 C   0  0  0  0  0  0  0  0  0  0  0  0
   11.1869  -25.7921   32.8069 N   0  0  0  0  0  0  0  0  0  0  0  0
   10.7948  -24.6947   31.9664 C   0  0  0  0  0  0  0  0  0  0  0  0
    9.4462  -24.8740   31.3419 C   0  0  0  0  0  0  0  0  0  0  0  0
   10.2239  -26.7238   33.2610 C   0  0  0  0  0  0  0  0  0  0  0  0
    9.2899  -27.0513   32.4836 O   0  0  0  0  0  0  0  0  0  0  0  0
   10.2627  -27.3099   34.5619 N   0  0  0  0  0  0  0  0  0  0  0  0
    9.1893  -28.1738   35.0593 C   0  0  2  0  0  0  0  0  0  0  0  0
    8.4546  -27.4597   36.2012 C   0  0  0  0  0  0  0  0  0  0  0  0
    8.4421  -28.4094   37.3536 C   0  0  0  0  0  0  0  0  0  0  0  0
    9.2442  -29.5284   36.9986 N   0  0  0  0  0  0  0  0  0  0  0  0
    8.7168  -30.7406   37.4950 C   0  0  0  0  0  0  0  0  0  0  0  0
    9.5365  -31.9411   36.9990 C   0  0  0  0  0  0  0  0  0  0  0  0
    9.3701  -31.8732   35.5238 C   0  0  0  0  0  0  0  0  0  0  0  0
    9.1449  -33.0524   34.7941 C   0  0  0  0  0  0  0  0  0  0  0  0
    9.0714  -34.3587   35.4484 C   0  0  0  0  0  0  0  0  0  0  0  0
    8.9910  -32.9636   33.4280 C   0  0  0  0  0  0  0  0  0  0  0  0
    9.0587  -31.7276   32.7911 C   0  0  0  0  0  0  0  0  0  0  0  0
    9.2779  -30.5786   33.4984 C   0  0  0  0  0  0  0  0  0  0  0  0
    9.4371  -30.6536   34.8971 C   0  0  0  0  0  0  0  0  0  0  0  0
    9.6800  -29.4498   35.6638 C   0  0  1  0  0  0  0  0  0  0  0  0
   11.2182  -29.2984   35.7267 C   0  0  0  0  0  0  0  0  0  0  0  0
  1  2  1  6
  2  3  1  1
  4  3  1  1
  5  4  1  6
  3  6  1  0
  6  7  2  0
  6  8  1  0
  9  8  1  1
  9 10  1  0
 10 11  1  6
 11 12  1  1
 13 12  1  1
 13 14  1  0
 14 15  1  6
 15 16  2  0
 17 16  1  1
 16 18  1  0
 18 19  2  0
 19 20  1  0
 20 21  2  0
 22 21  1  6
 23 22  1  6
 22  9  1  0
 22 12  1  0
 21 15  1  0
M  END
$$$$
