_rank14
     RDKit          3D

 23 25  0  0  0  0  0  0  0  0999 V2000
    7.6835  -42.4443   12.1722 C   0  0  0  0  0  0  0  0  0  0  0  0
    8.7851  -42.0354   11.1926 C   0  0  0  0  0  0  0  0  0  0  0  0
   10.0478  -41.8566   11.8389 N   0  0  0  0  0  0  0  0  0  0  0  0
   10.0842  -41.3467   13.1817 C   0  0  0  0  0  0  0  0  0  0  0  0
    9.5973  -39.9359   13.2973 C   0  0  0  0  0  0  0  0  0  0  0  0
   11.2489  -42.1780   11.1639 C   0  0  0  0  0  0  0  0  0  0  0  0
   11.1789  -42.6123    9.9848 O   0  0  0  0  0  0  0  0  0  0  0  0
   12.5378  -42.0325   11.7594 N   0  0  0  0  0  0  0  0  0  0  0  0
   13.7559  -42.5224   11.1095 C   0  0  2  0  0  0  0  0  0  0  0  0
   14.3607  -43.6505   11.9553 C   0  0  0  0  0  0  0  0  0  0  0  0
   15.7890  -43.2825   12.1896 C   0  0  0  0  0  0  0  0  0  0  0  0
   15.9855  -41.9705   11.6779 N   0  0  0  0  0  0  0  0  0  0  0  0
   17.2553  -41.8169   11.0795 C   0  0  0  0  0  0  0  0  0  0  0  0
   17.3949  -40.4304   10.4336 C   0  0  0  0  0  0  0  0  0  0  0  0
   16.3333  -40.4374    9.3937 C   0  0  0  0  0  0  0  0  0  0  0  0
   16.6033  -39.9089    8.1204 C   0  0  0  0  0  0  0  0  0  0  0  0
   17.9099  -39.3435    7.7843 C   0  0  0  0  0  0  0  0  0  0  0  0
   15.6041  -39.9291    7.1722 C   0  0  0  0  0  0  0  0  0  0  0  0
   14.3554  -40.4637    7.4773 C   0  0  0  0  0  0  0  0  0  0  0  0
   14.0897  -40.9784    8.7153 C   0  0  0  0  0  0  0  0  0  0  0  0
   15.1024  -40.9649    9.6960 C   0  0  0  0  0  0  0  0  0  0  0  0
   14.8387  -41.4960   11.0166 C   0  0  1  0  0  0  0  0  0  0  0  0
   14.3295  -40.2990   11.8538 C   0  0  0  0  0  0  0  0  0  0  0  0
  1  2  1  6
  2  3  1  1
  4  3  1  1
  5  4  1  6
  3  6  1  0
  6  7  2  0
  6  8  1  0
  9  8  1  1
  9 10  1  0
 10 11  1  6
 11 12  1  1
 13 12  1  1
 13 14  1  0
 14 15  1  6
 15 16  2  0
 17 16  1  1
 16 18  1  0
 18 19  2  0
 19 20  1  0
 20 21  2  0
 22 21  1  6
 23 22  1  6
 22  9  1  0
 22 12  1  0
 21 15  1  0
M  END
$$$$
