_rank20
     RDKit          3D

 23 25  0  0  0  0  0  0  0  0999 V2000
   23.1646  -60.7005   15.9598 C   0  0  0  0  0  0  0  0  0  0  0  0
   23.1204  -60.4361   14.4536 C   0  0  0  0  0  0  0  0  0  0  0  0
   23.7394  -59.1964   14.1014 N   0  0  0  0  0  0  0  0  0  0  0  0
   25.1733  -59.1061   14.0860 C   0  0  0  0  0  0  0  0  0  0  0  0
   25.8511  -60.2680   14.7428 C   0  0  0  0  0  0  0  0  0  0  0  0
   22.9490  -58.0703   13.7715 C   0  0  0  0  0  0  0  0  0  0  0  0
   23.2945  -57.3582   12.7931 O   0  0  0  0  0  0  0  0  0  0  0  0
   21.7765  -57.7041   14.4984 N   0  0  0  0  0  0  0  0  0  0  0  0
   21.1720  -56.3747   14.3830 C   0  0  2  0  0  0  0  0  0  0  0  0
   21.4675  -55.5732   15.6574 C   0  0  0  0  0  0  0  0  0  0  0  0
   20.1520  -55.0699   16.1535 C   0  0  0  0  0  0  0  0  0  0  0  0
   19.1356  -55.6551   15.3496 N   0  0  0  0  0  0  0  0  0  0  0  0
   18.0701  -54.7615   15.1043 C   0  0  0  0  0  0  0  0  0  0  0  0
   17.0461  -55.3782   14.1398 C   0  0  0  0  0  0  0  0  0  0  0  0
   17.8381  -55.5875   12.8999 C   0  0  0  0  0  0  0  0  0  0  0  0
   17.2717  -55.2783   11.6521 C   0  0  0  0  0  0  0  0  0  0  0  0
   15.9110  -54.7541   11.5345 C   0  0  0  0  0  0  0  0  0  0  0  0
   18.0265  -55.4782   10.5171 C   0  0  0  0  0  0  0  0  0  0  0  0
   19.3228  -55.9767   10.6130 C   0  0  0  0  0  0  0  0  0  0  0  0
   19.8765  -56.2785   11.8257 C   0  0  0  0  0  0  0  0  0  0  0  0
   19.1163  -56.0791   12.9960 C   0  0  0  0  0  0  0  0  0  0  0  0
   19.6804  -56.4018   14.2896 C   0  0  1  0  0  0  0  0  0  0  0  0
   19.2882  -57.8735   14.5605 C   0  0  0  0  0  0  0  0  0  0  0  0
  1  2  1  6
  2  3  1  1
  4  3  1  1
  5  4  1  6
  3  6  1  0
  6  7  2  0
  6  8  1  0
  9  8  1  1
  9 10  1  0
 10 11  1  6
 11 12  1  1
 13 12  1  1
 13 14  1  0
 14 15  1  6
 15 16  2  0
 17 16  1  1
 16 18  1  0
 18 19  2  0
 19 20  1  0
 20 21  2  0
 22 21  1  6
 23 22  1  6
 22  9  1  0
 22 12  1  0
 21 15  1  0
M  END
$$$$
