_rank18
     RDKit          3D

 23 25  0  0  0  0  0  0  0  0999 V2000
   22.1917  -59.8349   10.6958 C   0  0  0  0  0  0  0  0  0  0  0  0
   21.4973  -58.9606   11.7417 C   0  0  0  0  0  0  0  0  0  0  0  0
   21.4539  -57.5843   11.3570 N   0  0  0  0  0  0  0  0  0  0  0  0
   22.0936  -57.1749   10.1373 C   0  0  0  0  0  0  0  0  0  0  0  0
   22.8295  -55.8767   10.2565 C   0  0  0  0  0  0  0  0  0  0  0  0
   20.7886  -56.6353   12.1683 C   0  0  0  0  0  0  0  0  0  0  0  0
   20.6167  -55.4730   11.7173 O   0  0  0  0  0  0  0  0  0  0  0  0
   20.3032  -56.9356   13.4765 N   0  0  0  0  0  0  0  0  0  0  0  0
   19.8564  -55.8902   14.4005 C   0  0  2  0  0  0  0  0  0  0  0  0
   21.0768  -55.2829   15.1043 C   0  0  0  0  0  0  0  0  0  0  0  0
   20.7961  -55.3518   16.5694 C   0  0  0  0  0  0  0  0  0  0  0  0
   19.5923  -56.0881   16.7435 N   0  0  0  0  0  0  0  0  0  0  0  0
   18.8031  -55.5770   17.7971 C   0  0  0  0  0  0  0  0  0  0  0  0
   17.4594  -56.3157   17.8860 C   0  0  0  0  0  0  0  0  0  0  0  0
   16.8254  -56.0159   16.5758 C   0  0  0  0  0  0  0  0  0  0  0  0
   15.4592  -55.6935   16.5216 C   0  0  0  0  0  0  0  0  0  0  0  0
   14.6323  -55.6463   17.7275 C   0  0  0  0  0  0  0  0  0  0  0  0
   14.8948  -55.4168   15.2958 C   0  0  0  0  0  0  0  0  0  0  0  0
   15.6687  -55.4578   14.1394 C   0  0  0  0  0  0  0  0  0  0  0  0
   16.9983  -55.7714   14.1890 C   0  0  0  0  0  0  0  0  0  0  0  0
   17.5900  -56.0569   15.4363 C   0  0  0  0  0  0  0  0  0  0  0  0
   18.9943  -56.4009   15.5098 C   0  0  1  0  0  0  0  0  0  0  0  0
   19.0533  -57.9418   15.3869 C   0  0  0  0  0  0  0  0  0  0  0  0
  1  2  1  6
  2  3  1  1
  4  3  1  1
  5  4  1  6
  3  6  1  0
  6  7  2  0
  6  8  1  0
  9  8  1  6
  9 10  1  0
 10 11  1  6
 11 12  1  1
 13 12  1  1
 13 14  1  0
 14 15  1  6
 15 16  2  0
 17 16  1  1
 16 18  1  0
 18 19  2  0
 19 20  1  0
 20 21  2  0
 22 21  1  1
 23 22  1  6
 22  9  1  0
 22 12  1  0
 21 15  1  0
M  END
$$$$
