_rank14
     RDKit          3D

 23 26  0  0  0  0  0  0  0  0999 V2000
   28.8926    1.1996   -8.3726 Br  0  0  0  0  0  0  0  0  0  0  0  0
   27.6938   -0.2259   -8.8049 C   0  0  0  0  0  0  0  0  0  0  0  0
   27.9694   -1.5381   -8.4574 C   0  0  0  0  0  0  0  0  0  0  0  0
   27.0922   -2.5571   -8.7773 C   0  0  0  0  0  0  0  0  0  0  0  0
   25.9108   -2.2424   -9.4636 C   0  0  0  0  0  0  0  0  0  0  0  0
   25.6203   -0.9473   -9.8167 C   0  0  0  0  0  0  0  0  0  0  0  0
   24.3855   -0.6147  -10.5343 C   0  0  2  0  0  0  0  0  0  0  0  0
   23.2000   -0.4434   -9.5880 C   0  0  0  0  0  0  0  0  0  0  0  0
   21.9622   -0.4069  -10.4788 C   0  0  2  0  0  0  0  0  0  0  0  0
   20.8336    0.2695   -9.8482 C   0  0  0  0  0  0  0  0  0  0  0  0
   20.0603   -0.4398   -8.9503 C   0  0  0  0  0  0  0  0  0  0  0  0
   18.9760    0.1035   -8.3021 C   0  0  0  0  0  0  0  0  0  0  0  0
   18.6507    1.4148   -8.5636 C   0  0  0  0  0  0  0  0  0  0  0  0
   19.4031    2.1597   -9.4590 C   0  0  0  0  0  0  0  0  0  0  0  0
   18.8942    3.9719   -9.7731 Br  0  0  0  0  0  0  0  0  0  0  0  0
   20.4692    1.5781  -10.0775 C   0  0  0  0  0  0  0  0  0  0  0  0
   21.7203   -1.7439  -10.9140 N   0  0  0  0  0  0  0  0  0  0  0  0
   20.7420   -2.6271  -10.9725 N   0  0  0  0  0  0  0  0  0  0  0  0
   21.1465   -3.7639  -11.5133 N   0  0  0  0  0  0  0  0  0  0  0  0
   22.4253   -3.6054  -11.8115 N   0  0  0  0  0  0  0  0  0  0  0  0
   22.7925   -2.3650  -11.4476 C   0  0  0  0  0  0  0  0  0  0  0  0
   24.0138   -1.6219  -11.5094 N   0  0  0  0  0  0  0  0  0  0  0  0
   26.5181    0.0354   -9.4801 C   0  0  0  0  0  0  0  0  0  0  0  0
  1  2  1  0
  2  3  2  0
  3  4  1  0
  4  5  2  0
  5  6  1  0
  7  6  1  1
  8  7  1  6
  8  9  1  0
  9 10  1  1
 10 11  2  0
 11 12  1  0
 12 13  2  0
 13 14  1  0
 14 15  1  0
 14 16  2  0
  9 17  1  0
 17 18  1  0
 18 19  2  0
 19 20  1  0
 20 21  2  0
 21 22  1  0
  6 23  2  0
 23  2  1  0
 22  7  1  0
 16 10  1  0
 21 17  1  0
M  END
$$$$
