_rank19
     RDKit          3D

 23 26  0  0  0  0  0  0  0  0999 V2000
   28.7698    1.2883   -7.6751 Br  0  0  0  0  0  0  0  0  0  0  0  0
   27.7525   -0.0792   -8.5417 C   0  0  0  0  0  0  0  0  0  0  0  0
   28.1271   -1.4114   -8.4830 C   0  0  0  0  0  0  0  0  0  0  0  0
   27.3807   -2.3879   -9.1151 C   0  0  0  0  0  0  0  0  0  0  0  0
   26.2305   -2.0091   -9.8218 C   0  0  0  0  0  0  0  0  0  0  0  0
   25.8432   -0.6932   -9.8911 C   0  0  0  0  0  0  0  0  0  0  0  0
   24.6407   -0.2936  -10.6292 C   0  0  2  0  0  0  0  0  0  0  0  0
   23.3833   -0.9677  -10.0861 C   0  0  0  0  0  0  0  0  0  0  0  0
   22.2930   -0.7021  -11.1194 C   0  0  2  0  0  0  0  0  0  0  0  0
   20.9498   -0.7844  -10.5554 C   0  0  0  0  0  0  0  0  0  0  0  0
   20.3641   -2.0289  -10.4312 C   0  0  0  0  0  0  0  0  0  0  0  0
   19.1041   -2.2160   -9.9131 C   0  0  0  0  0  0  0  0  0  0  0  0
   18.3984   -1.1088   -9.5008 C   0  0  0  0  0  0  0  0  0  0  0  0
   18.9528    0.1575   -9.6094 C   0  0  0  0  0  0  0  0  0  0  0  0
   17.9171    1.6473   -9.0179 Br  0  0  0  0  0  0  0  0  0  0  0  0
   20.2051    0.2934  -10.1294 C   0  0  0  0  0  0  0  0  0  0  0  0
   22.5530   -1.5575  -12.2312 N   0  0  0  0  0  0  0  0  0  0  0  0
   21.9355   -2.4366  -12.9969 N   0  0  0  0  0  0  0  0  0  0  0  0
   22.7447   -2.9296  -13.9192 N   0  0  0  0  0  0  0  0  0  0  0  0
   23.9192   -2.3483  -13.7397 N   0  0  0  0  0  0  0  0  0  0  0  0
   23.8157   -1.5000  -12.7026 C   0  0  0  0  0  0  0  0  0  0  0  0
   24.7190   -0.6076  -12.0430 N   0  0  0  0  0  0  0  0  0  0  0  0
   26.6123    0.2457   -9.2494 C   0  0  0  0  0  0  0  0  0  0  0  0
  1  2  1  0
  2  3  2  0
  3  4  1  0
  4  5  2  0
  5  6  1  0
  7  6  1  1
  8  7  1  6
  8  9  1  0
  9 10  1  1
 10 11  2  0
 11 12  1  0
 12 13  2  0
 13 14  1  0
 14 15  1  0
 14 16  2  0
  9 17  1  0
 17 18  1  0
 18 19  2  0
 19 20  1  0
 20 21  2  0
 21 22  1  0
  6 23  2  0
 23  2  1  0
 22  7  1  0
 16 10  1  0
 21 17  1  0
M  END
$$$$
