_rank15
     RDKit          3D

 22 24  0  0  0  0  0  0  0  0999 V2000
   26.6660   -1.5438  -12.4698 O   0  0  0  0  0  0  0  0  0  0  0  0
   26.7671   -1.6915  -11.2328 N   0  0  0  0  0  4  0  0  0  0  0  0
   27.3655   -2.8086  -10.7040 O   0  0  0  0  0  1  0  0  0  0  0  0
   26.2784   -0.7311  -10.3357 C   0  0  0  0  0  0  0  0  0  0  0  0
   24.9630   -0.2935  -10.4812 C   0  0  0  0  0  0  0  0  0  0  0  0
   24.1794   -0.8385  -11.5228 N   0  0  0  0  0  0  0  0  0  0  0  0
   22.9924   -0.1872  -12.0204 C   0  0  0  0  0  0  0  0  0  0  0  0
   21.7670   -0.9303  -11.5826 C   0  0  0  0  0  0  0  0  0  0  0  0
   21.0181   -1.6210  -12.4962 C   0  0  0  0  0  0  0  0  0  0  0  0
   19.9018   -2.2978  -12.0823 C   0  0  0  0  0  0  0  0  0  0  0  0
   19.1590   -2.9820  -12.9779 F   0  0  0  0  0  0  0  0  0  0  0  0
   19.5670   -2.2591  -10.7410 C   0  0  0  0  0  0  0  0  0  0  0  0
   20.2980   -1.5773   -9.8121 C   0  0  0  0  0  0  0  0  0  0  0  0
   19.8187   -1.5706   -8.1372 Cl  0  0  0  0  0  0  0  0  0  0  0  0
   21.4196   -0.8983  -10.2338 C   0  0  0  0  0  0  0  0  0  0  0  0
   24.4470    0.6507   -9.6200 C   0  0  0  0  0  0  0  0  0  0  0  0
   25.2386    1.1686   -8.6038 C   0  0  0  0  0  0  0  0  0  0  0  0
   26.5338    0.7236   -8.4771 C   0  0  0  0  0  0  0  0  0  0  0  0
   27.5282    1.0174   -7.6245 N   0  0  0  0  0  0  0  0  0  0  0  0
   28.5517    0.3090   -7.9489 O   0  0  0  0  0  0  0  0  0  0  0  0
   28.3169   -0.4448   -8.9637 N   0  0  0  0  0  0  0  0  0  0  0  0
   27.0452   -0.2190   -9.3386 C   0  0  0  0  0  0  0  0  0  0  0  0
  1  2  2  0
  2  3  1  0
  2  4  1  0
  4  5  2  0
  5  6  1  0
  7  6  1  6
  7  8  1  0
  8  9  2  0
  9 10  1  0
 10 11  1  0
 10 12  2  0
 12 13  1  0
 13 14  1  0
 13 15  2  0
  5 16  1  0
 16 17  2  0
 17 18  1  0
 18 19  2  0
 19 20  1  0
 20 21  1  0
 21 22  2  0
 22  4  1  0
 15  8  1  0
 22 18  1  0
M  CHG  2   2   1   3  -1
M  END
$$$$
