_rank13
     RDKit          3D

 23 26  0  0  0  0  0  0  0  0999 V2000
   29.3167    0.4788   -6.4899 Br  0  0  0  0  0  0  0  0  0  0  0  0
   28.2217   -0.4206   -7.7736 C   0  0  0  0  0  0  0  0  0  0  0  0
   28.4811   -1.7240   -8.1644 C   0  0  0  0  0  0  0  0  0  0  0  0
   27.6798   -2.3600   -9.0937 C   0  0  0  0  0  0  0  0  0  0  0  0
   26.5926   -1.6631   -9.6396 C   0  0  0  0  0  0  0  0  0  0  0  0
   26.3196   -0.3703   -9.2645 C   0  0  0  0  0  0  0  0  0  0  0  0
   25.1831    0.3614   -9.8334 C   0  0  2  0  0  0  0  0  0  0  0  0
   23.9400   -0.5158   -9.9580 C   0  0  0  0  0  0  0  0  0  0  0  0
   22.9634    0.2724  -10.8251 C   0  0  2  0  0  0  0  0  0  0  0  0
   21.5757   -0.1282  -10.6179 C   0  0  0  0  0  0  0  0  0  0  0  0
   20.7943    0.6254   -9.7643 C   0  0  0  0  0  0  0  0  0  0  0  0
   19.4765    0.3340   -9.5006 C   0  0  0  0  0  0  0  0  0  0  0  0
   18.9152   -0.7602  -10.1184 C   0  0  0  0  0  0  0  0  0  0  0  0
   19.6677   -1.5414  -10.9823 C   0  0  0  0  0  0  0  0  0  0  0  0
   18.8242   -3.0433  -11.8036 Br  0  0  0  0  0  0  0  0  0  0  0  0
   20.9702   -1.2132  -11.2127 C   0  0  0  0  0  0  0  0  0  0  0  0
   23.4385    0.1934  -12.1680 N   0  0  0  0  0  0  0  0  0  0  0  0
   23.0070   -0.1099  -13.3772 N   0  0  0  0  0  0  0  0  0  0  0  0
   23.9665    0.0104  -14.2790 N   0  0  0  0  0  0  0  0  0  0  0  0
   25.0485    0.4035  -13.6278 N   0  0  0  0  0  0  0  0  0  0  0  0
   24.7378    0.5205  -12.3256 C   0  0  0  0  0  0  0  0  0  0  0  0
   25.4633    0.8977  -11.1515 N   0  0  0  0  0  0  0  0  0  0  0  0
   27.1400    0.2252   -8.3387 C   0  0  0  0  0  0  0  0  0  0  0  0
  1  2  1  0
  2  3  2  0
  3  4  1  0
  4  5  2  0
  5  6  1  0
  7  6  1  6
  8  7  1  6
  8  9  1  0
  9 10  1  6
 10 11  2  0
 11 12  1  0
 12 13  2  0
 13 14  1  0
 14 15  1  0
 14 16  2  0
  9 17  1  0
 17 18  1  0
 18 19  2  0
 19 20  1  0
 20 21  2  0
 21 22  1  0
  6 23  2  0
 23  2  1  0
 22  7  1  0
 16 10  1  0
 21 17  1  0
M  END
$$$$
