_rank8
     RDKit          3D

 23 26  0  0  0  0  0  0  0  0999 V2000
   18.6184    2.0663  -10.6796 Br  0  0  0  0  0  0  0  0  0  0  0  0
   19.3343    0.2937  -10.6419 C   0  0  0  0  0  0  0  0  0  0  0  0
   18.5401   -0.8051  -10.3581 C   0  0  0  0  0  0  0  0  0  0  0  0
   19.0732   -2.0800  -10.3348 C   0  0  0  0  0  0  0  0  0  0  0  0
   20.4388   -2.2476  -10.6044 C   0  0  0  0  0  0  0  0  0  0  0  0
   21.2421   -1.1702  -10.8879 C   0  0  0  0  0  0  0  0  0  0  0  0
   22.6708   -1.3419  -11.1705 C   0  0  2  0  0  0  0  0  0  0  0  0
   23.5488   -0.7390  -10.0770 C   0  0  0  0  0  0  0  0  0  0  0  0
   24.9641   -0.7222  -10.6458 C   0  0  2  0  0  0  0  0  0  0  0  0
   25.9888   -0.6967   -9.6074 C   0  0  0  0  0  0  0  0  0  0  0  0
   25.6052   -0.9202   -8.2997 C   0  0  0  0  0  0  0  0  0  0  0  0
   26.4909   -0.9177   -7.2478 C   0  0  0  0  0  0  0  0  0  0  0  0
   27.8198   -0.6810   -7.5159 C   0  0  0  0  0  0  0  0  0  0  0  0
   28.2437   -0.4522   -8.8162 C   0  0  0  0  0  0  0  0  0  0  0  0
   30.1011   -0.1310   -9.1140 Br  0  0  0  0  0  0  0  0  0  0  0  0
   27.3289   -0.4645   -9.8263 C   0  0  0  0  0  0  0  0  0  0  0  0
   25.0195    0.3382  -11.5987 N   0  0  0  0  0  0  0  0  0  0  0  0
   25.7560    1.3908  -11.8988 N   0  0  0  0  0  0  0  0  0  0  0  0
   25.2814    2.0298  -12.9547 N   0  0  0  0  0  0  0  0  0  0  0  0
   24.2058    1.3662  -13.3447 N   0  0  0  0  0  0  0  0  0  0  0  0
   24.0323    0.3211  -12.5181 C   0  0  0  0  0  0  0  0  0  0  0  0
   23.0721   -0.7357  -12.4255 N   0  0  0  0  0  0  0  0  0  0  0  0
   20.6735    0.0793  -10.9010 C   0  0  0  0  0  0  0  0  0  0  0  0
  1  2  1  0
  2  3  2  0
  3  4  1  0
  4  5  2  0
  5  6  1  0
  7  6  1  1
  8  7  1  6
  8  9  1  0
  9 10  1  1
 10 11  2  0
 11 12  1  0
 12 13  2  0
 13 14  1  0
 14 15  1  0
 14 16  2  0
  9 17  1  0
 17 18  1  0
 18 19  2  0
 19 20  1  0
 20 21  2  0
 21 22  1  0
  6 23  2  0
 23  2  1  0
 22  7  1  0
 16 10  1  0
 21 17  1  0
M  END
$$$$
