_rank9
     RDKit          3D

 22 24  0  0  0  0  0  0  0  0999 V2000
   25.4825   -1.1287  -12.4110 O   0  0  0  0  0  0  0  0  0  0  0  0
   26.3320   -1.1215  -11.4941 N   0  0  0  0  0  4  0  0  0  0  0  0
   27.5298   -1.7769  -11.6392 O   0  0  0  0  0  1  0  0  0  0  0  0
   26.1026   -0.4491  -10.2853 C   0  0  0  0  0  0  0  0  0  0  0  0
   24.8859    0.2083  -10.1103 C   0  0  0  0  0  0  0  0  0  0  0  0
   23.9367    0.1655  -11.1558 N   0  0  0  0  0  0  0  0  0  0  0  0
   22.6899    0.8887  -11.0992 C   0  0  0  0  0  0  0  0  0  0  0  0
   21.5515   -0.0526  -10.8475 C   0  0  0  0  0  0  0  0  0  0  0  0
   20.5779    0.2716   -9.9422 C   0  0  0  0  0  0  0  0  0  0  0  0
   19.5417   -0.5966   -9.7234 C   0  0  0  0  0  0  0  0  0  0  0  0
   18.5775   -0.2828   -8.8325 F   0  0  0  0  0  0  0  0  0  0  0  0
   19.5153   -1.7835  -10.4329 C   0  0  0  0  0  0  0  0  0  0  0  0
   20.4745   -2.1283  -11.3402 C   0  0  0  0  0  0  0  0  0  0  0  0
   20.3794   -3.6407  -12.1997 Cl  0  0  0  0  0  0  0  0  0  0  0  0
   21.5143   -1.2514  -11.5563 C   0  0  0  0  0  0  0  0  0  0  0  0
   24.6241    0.8817   -8.9366 C   0  0  0  0  0  0  0  0  0  0  0  0
   25.5741    0.9064   -7.9246 C   0  0  0  0  0  0  0  0  0  0  0  0
   26.7682    0.2515   -8.1169 C   0  0  0  0  0  0  0  0  0  0  0  0
   27.8621    0.0906   -7.3557 N   0  0  0  0  0  0  0  0  0  0  0  0
   28.7062   -0.6187   -8.0183 O   0  0  0  0  0  0  0  0  0  0  0  0
   28.2571   -0.9488   -9.1770 N   0  0  0  0  0  0  0  0  0  0  0  0
   27.0258   -0.4196   -9.2897 C   0  0  0  0  0  0  0  0  0  0  0  0
  1  2  2  0
  2  3  1  0
  2  4  1  0
  4  5  2  0
  5  6  1  0
  7  6  1  6
  7  8  1  0
  8  9  2  0
  9 10  1  0
 10 11  1  0
 10 12  2  0
 12 13  1  0
 13 14  1  0
 13 15  2  0
  5 16  1  0
 16 17  2  0
 17 18  1  0
 18 19  2  0
 19 20  1  0
 20 21  1  0
 21 22  2  0
 22  4  1  0
 15  8  1  0
 22 18  1  0
M  CHG  2   2   1   3  -1
M  END
$$$$
