_rank18
     RDKit          3D

 22 24  0  0  0  0  0  0  0  0999 V2000
   26.3922    0.3937   -7.5314 O   0  0  0  0  0  0  0  0  0  0  0  0
   25.4546    0.3117   -8.3539 N   0  0  0  0  0  4  0  0  0  0  0  0
   24.2231    0.8502   -8.0733 O   0  0  0  0  0  1  0  0  0  0  0  0
   25.6162   -0.3284   -9.5909 C   0  0  0  0  0  0  0  0  0  0  0  0
   24.6068   -0.1993  -10.5435 C   0  0  0  0  0  0  0  0  0  0  0  0
   23.4679    0.5728  -10.2228 N   0  0  0  0  0  0  0  0  0  0  0  0
   22.3373    0.6901  -11.1110 C   0  0  0  0  0  0  0  0  0  0  0  0
   21.4932   -0.5463  -11.0474 C   0  0  0  0  0  0  0  0  0  0  0  0
   21.8171   -1.5569  -10.1834 C   0  0  0  0  0  0  0  0  0  0  0  0
   21.0358   -2.6805  -10.1336 C   0  0  0  0  0  0  0  0  0  0  0  0
   21.3489   -3.6807   -9.2831 F   0  0  0  0  0  0  0  0  0  0  0  0
   19.9348   -2.7552  -10.9673 C   0  0  0  0  0  0  0  0  0  0  0  0
   19.5922   -1.7607  -11.8367 C   0  0  0  0  0  0  0  0  0  0  0  0
   18.1907   -1.9204  -12.8591 Cl  0  0  0  0  0  0  0  0  0  0  0  0
   20.3816   -0.6330  -11.8827 C   0  0  0  0  0  0  0  0  0  0  0  0
   24.7284   -0.8151  -11.7706 C   0  0  0  0  0  0  0  0  0  0  0  0
   25.8591   -1.5668  -12.0601 C   0  0  0  0  0  0  0  0  0  0  0  0
   26.8436   -1.6818  -11.1066 C   0  0  0  0  0  0  0  0  0  0  0  0
   28.0252   -2.3183  -11.0765 N   0  0  0  0  0  0  0  0  0  0  0  0
   28.5639   -2.1014   -9.9287 O   0  0  0  0  0  0  0  0  0  0  0  0
   27.8265   -1.3607   -9.1799 N   0  0  0  0  0  0  0  0  0  0  0  0
   26.7187   -1.0656   -9.8832 C   0  0  0  0  0  0  0  0  0  0  0  0
  1  2  2  0
  2  3  1  0
  2  4  1  0
  4  5  2  0
  5  6  1  0
  7  6  1  6
  7  8  1  0
  8  9  2  0
  9 10  1  0
 10 11  1  0
 10 12  2  0
 12 13  1  0
 13 14  1  0
 13 15  2  0
  5 16  1  0
 16 17  2  0
 17 18  1  0
 18 19  2  0
 19 20  1  0
 20 21  1  0
 21 22  2  0
 22  4  1  0
 15  8  1  0
 22 18  1  0
M  CHG  2   2   1   3  -1
M  END
$$$$
