_rank18
     RDKit          3D

 23 26  0  0  0  0  0  0  0  0999 V2000
   29.8224    1.3131   -9.0390 Br  0  0  0  0  0  0  0  0  0  0  0  0
   28.2967    0.1637   -8.9551 C   0  0  0  0  0  0  0  0  0  0  0  0
   28.2875   -0.9758   -8.1674 C   0  0  0  0  0  0  0  0  0  0  0  0
   27.1764   -1.7963   -8.1178 C   0  0  0  0  0  0  0  0  0  0  0  0
   26.0502   -1.4573   -8.8811 C   0  0  0  0  0  0  0  0  0  0  0  0
   26.0407   -0.3317   -9.6680 C   0  0  0  0  0  0  0  0  0  0  0  0
   24.8644    0.0258  -10.4675 C   0  0  2  0  0  0  0  0  0  0  0  0
   23.6189   -0.7413  -10.0310 C   0  0  0  0  0  0  0  0  0  0  0  0
   22.5810   -0.4992  -11.1223 C   0  0  2  0  0  0  0  0  0  0  0  0
   21.2128   -0.6819  -10.6494 C   0  0  0  0  0  0  0  0  0  0  0  0
   20.6683   -1.9505  -10.6862 C   0  0  0  0  0  0  0  0  0  0  0  0
   19.3896   -2.2300  -10.2646 C   0  0  0  0  0  0  0  0  0  0  0  0
   18.6210   -1.1941   -9.7848 C   0  0  0  0  0  0  0  0  0  0  0  0
   19.1324    0.0937   -9.7322 C   0  0  0  0  0  0  0  0  0  0  0  0
   18.0104    1.4809   -9.0553 Br  0  0  0  0  0  0  0  0  0  0  0  0
   20.4056    0.3222  -10.1613 C   0  0  0  0  0  0  0  0  0  0  0  0
   22.9611   -1.2936  -12.2448 N   0  0  0  0  0  0  0  0  0  0  0  0
   22.4470   -2.1765  -13.0795 N   0  0  0  0  0  0  0  0  0  0  0  0
   23.3406   -2.5848  -13.9646 N   0  0  0  0  0  0  0  0  0  0  0  0
   24.4641   -1.9434  -13.6892 N   0  0  0  0  0  0  0  0  0  0  0  0
   24.2449   -1.1441  -12.6314 C   0  0  0  0  0  0  0  0  0  0  0  0
   25.0495   -0.2272  -11.8835 N   0  0  0  0  0  0  0  0  0  0  0  0
   27.1646    0.4565   -9.6892 C   0  0  0  0  0  0  0  0  0  0  0  0
  1  2  1  0
  2  3  2  0
  3  4  1  0
  4  5  2  0
  5  6  1  0
  7  6  1  1
  8  7  1  6
  8  9  1  0
  9 10  1  1
 10 11  2  0
 11 12  1  0
 12 13  2  0
 13 14  1  0
 14 15  1  0
 14 16  2  0
  9 17  1  0
 17 18  1  0
 18 19  2  0
 19 20  1  0
 20 21  2  0
 21 22  1  0
  6 23  2  0
 23  2  1  0
 22  7  1  0
 16 10  1  0
 21 17  1  0
M  END
$$$$
