_rank2
     RDKit          3D

 23 26  0  0  0  0  0  0  0  0999 V2000
   18.7698    2.1737  -10.6059 Br  0  0  0  0  0  0  0  0  0  0  0  0
   19.4431    0.3846  -10.5667 C   0  0  0  0  0  0  0  0  0  0  0  0
   18.6247   -0.6940  -10.2740 C   0  0  0  0  0  0  0  0  0  0  0  0
   19.1271   -1.9813  -10.2497 C   0  0  0  0  0  0  0  0  0  0  0  0
   20.4866   -2.1824  -10.5275 C   0  0  0  0  0  0  0  0  0  0  0  0
   21.3137   -1.1256  -10.8199 C   0  0  0  0  0  0  0  0  0  0  0  0
   22.7359   -1.3325  -11.1111 C   0  0  2  0  0  0  0  0  0  0  0  0
   23.6373   -0.6071  -10.1152 C   0  0  0  0  0  0  0  0  0  0  0  0
   25.0399   -0.6605  -10.7125 C   0  0  2  0  0  0  0  0  0  0  0  0
   26.0868   -0.5153   -9.7066 C   0  0  0  0  0  0  0  0  0  0  0  0
   26.4521    0.7582   -9.3169 C   0  0  0  0  0  0  0  0  0  0  0  0
   27.4258    1.0044   -8.3776 C   0  0  0  0  0  0  0  0  0  0  0  0
   28.0628   -0.0714   -7.8024 C   0  0  0  0  0  0  0  0  0  0  0  0
   27.7237   -1.3654   -8.1677 C   0  0  0  0  0  0  0  0  0  0  0  0
   28.6483   -2.8089   -7.3290 Br  0  0  0  0  0  0  0  0  0  0  0  0
   26.7521   -1.5599   -9.1033 C   0  0  0  0  0  0  0  0  0  0  0  0
   25.0742    0.2804  -11.7845 N   0  0  0  0  0  0  0  0  0  0  0  0
   25.8037    1.2887  -12.2221 N   0  0  0  0  0  0  0  0  0  0  0  0
   25.3061    1.8003  -13.3353 N   0  0  0  0  0  0  0  0  0  0  0  0
   24.2225    1.0978  -13.6213 N   0  0  0  0  0  0  0  0  0  0  0  0
   24.0673    0.1574  -12.6739 C   0  0  0  0  0  0  0  0  0  0  0  0
   23.1097   -0.8790  -12.4370 N   0  0  0  0  0  0  0  0  0  0  0  0
   20.7751    0.1372  -10.8336 C   0  0  0  0  0  0  0  0  0  0  0  0
  1  2  1  0
  2  3  2  0
  3  4  1  0
  4  5  2  0
  5  6  1  0
  7  6  1  1
  8  7  1  6
  8  9  1  0
  9 10  1  1
 10 11  2  0
 11 12  1  0
 12 13  2  0
 13 14  1  0
 14 15  1  0
 14 16  2  0
  9 17  1  0
 17 18  1  0
 18 19  2  0
 19 20  1  0
 20 21  2  0
 21 22  1  0
  6 23  2  0
 23  2  1  0
 22  7  1  0
 16 10  1  0
 21 17  1  0
M  END
$$$$
