_rank20
     RDKit          3D

 23 26  0  0  0  0  0  0  0  0999 V2000
   23.3612    6.4585  -10.1246 Br  0  0  0  0  0  0  0  0  0  0  0  0
   24.8126    5.2517  -10.4293 C   0  0  0  0  0  0  0  0  0  0  0  0
   26.1319    5.6603  -10.3247 C   0  0  0  0  0  0  0  0  0  0  0  0
   27.1698    4.7754  -10.5481 C   0  0  0  0  0  0  0  0  0  0  0  0
   26.8669    3.4484  -10.8847 C   0  0  0  0  0  0  0  0  0  0  0  0
   25.5650    3.0247  -10.9931 C   0  0  0  0  0  0  0  0  0  0  0  0
   25.2448    1.6375  -11.3447 C   0  0  2  0  0  0  0  0  0  0  0  0
   24.1054    1.0786  -10.4963 C   0  0  0  0  0  0  0  0  0  0  0  0
   24.0950   -0.4244  -10.7569 C   0  0  2  0  0  0  0  0  0  0  0  0
   22.7983   -1.0349  -10.4835 C   0  0  0  0  0  0  0  0  0  0  0  0
   22.4652   -1.3115   -9.1720 C   0  0  0  0  0  0  0  0  0  0  0  0
   21.2700   -1.8851   -8.8072 C   0  0  0  0  0  0  0  0  0  0  0  0
   20.3673   -2.1961   -9.7984 C   0  0  0  0  0  0  0  0  0  0  0  0
   20.6655   -1.9336  -11.1269 C   0  0  0  0  0  0  0  0  0  0  0  0
   19.3668   -2.3911  -12.4482 Br  0  0  0  0  0  0  0  0  0  0  0  0
   21.8632   -1.3639  -11.4401 C   0  0  0  0  0  0  0  0  0  0  0  0
   25.2037   -0.9791  -10.0508 N   0  0  0  0  0  0  0  0  0  0  0  0
   25.4772   -1.9478   -9.1980 N   0  0  0  0  0  0  0  0  0  0  0  0
   26.7619   -1.9707   -8.8857 N   0  0  0  0  0  0  0  0  0  0  0  0
   27.3311   -0.9851   -9.5596 N   0  0  0  0  0  0  0  0  0  0  0  0
   26.3826   -0.3653  -10.2821 C   0  0  0  0  0  0  0  0  0  0  0  0
   26.3753    0.7428  -11.1873 N   0  0  0  0  0  0  0  0  0  0  0  0
   24.5635    3.9352  -10.7631 C   0  0  0  0  0  0  0  0  0  0  0  0
  1  2  1  0
  2  3  2  0
  3  4  1  0
  4  5  2  0
  5  6  1  0
  7  6  1  1
  8  7  1  6
  8  9  1  0
  9 10  1  1
 10 11  2  0
 11 12  1  0
 12 13  2  0
 13 14  1  0
 14 15  1  0
 14 16  2  0
  9 17  1  0
 17 18  1  0
 18 19  2  0
 19 20  1  0
 20 21  2  0
 21 22  1  0
  6 23  2  0
 23  2  1  0
 22  7  1  0
 16 10  1  0
 21 17  1  0
M  END
$$$$
