_rank12
     RDKit          3D

 22 24  0  0  0  0  0  0  0  0999 V2000
   21.8916   -2.3291  -12.4970 O   0  0  0  0  0  0  0  0  0  0  0  0
   21.2548   -1.2812  -12.2554 N   0  0  0  0  0  4  0  0  0  0  0  0
   20.5284   -0.6563  -13.2389 O   0  0  0  0  0  1  0  0  0  0  0  0
   21.2526   -0.7004  -10.9791 C   0  0  0  0  0  0  0  0  0  0  0  0
   22.0191   -1.2935   -9.9772 C   0  0  0  0  0  0  0  0  0  0  0  0
   22.7664   -2.4504  -10.2918 N   0  0  0  0  0  0  0  0  0  0  0  0
   23.8466   -2.4378  -11.2477 C   0  0  0  0  0  0  0  0  0  0  0  0
   24.8606   -1.3991  -10.8757 C   0  0  0  0  0  0  0  0  0  0  0  0
   25.1917   -0.4118  -11.7634 C   0  0  0  0  0  0  0  0  0  0  0  0
   26.1182    0.5327  -11.4099 C   0  0  0  0  0  0  0  0  0  0  0  0
   26.4488    1.5100  -12.2803 F   0  0  0  0  0  0  0  0  0  0  0  0
   26.6928    0.4547  -10.1543 C   0  0  0  0  0  0  0  0  0  0  0  0
   26.3787   -0.5202   -9.2526 C   0  0  0  0  0  0  0  0  0  0  0  0
   27.1415   -0.5591   -7.6869 Cl  0  0  0  0  0  0  0  0  0  0  0  0
   25.4464   -1.4676   -9.6135 C   0  0  0  0  0  0  0  0  0  0  0  0
   22.0414   -0.7530   -8.7095 C   0  0  0  0  0  0  0  0  0  0  0  0
   21.2986    0.3856   -8.4280 C   0  0  0  0  0  0  0  0  0  0  0  0
   20.5491    0.9556   -9.4305 C   0  0  0  0  0  0  0  0  0  0  0  0
   19.7446    2.0291   -9.4807 N   0  0  0  0  0  0  0  0  0  0  0  0
   19.2807    2.1221  -10.6769 O   0  0  0  0  0  0  0  0  0  0  0  0
   19.7173    1.1838  -11.4398 N   0  0  0  0  0  0  0  0  0  0  0  0
   20.5294    0.4133  -10.6945 C   0  0  0  0  0  0  0  0  0  0  0  0
  1  2  2  0
  2  3  1  0
  2  4  1  0
  4  5  2  0
  5  6  1  0
  7  6  1  6
  7  8  1  0
  8  9  2  0
  9 10  1  0
 10 11  1  0
 10 12  2  0
 12 13  1  0
 13 14  1  0
 13 15  2  0
  5 16  1  0
 16 17  2  0
 17 18  1  0
 18 19  2  0
 19 20  1  0
 20 21  1  0
 21 22  2  0
 22  4  1  0
 15  8  1  0
 22 18  1  0
M  CHG  2   2   1   3  -1
M  END
$$$$
