_rank10
     RDKit          3D

 22 24  0  0  0  0  0  0  0  0999 V2000
   26.4412   -1.2738  -12.7381 O   0  0  0  0  0  0  0  0  0  0  0  0
   26.8649   -0.3663  -11.9903 N   0  0  0  0  0  4  0  0  0  0  0  0
   27.9320    0.4128  -12.3640 O   0  0  0  0  0  1  0  0  0  0  0  0
   26.2745   -0.1041  -10.7458 C   0  0  0  0  0  0  0  0  0  0  0  0
   24.9167    0.2088  -10.7064 C   0  0  0  0  0  0  0  0  0  0  0  0
   24.1947    0.2447  -11.9202 N   0  0  0  0  0  0  0  0  0  0  0  0
   22.9475    0.9562  -12.0581 C   0  0  0  0  0  0  0  0  0  0  0  0
   21.8265    0.1662  -11.4542 C   0  0  0  0  0  0  0  0  0  0  0  0
   21.8921   -1.2000  -11.4124 C   0  0  0  0  0  0  0  0  0  0  0  0
   20.8618   -1.9098  -10.8555 C   0  0  0  0  0  0  0  0  0  0  0  0
   20.9204   -3.2575  -10.8101 F   0  0  0  0  0  0  0  0  0  0  0  0
   19.7794   -1.2133  -10.3494 C   0  0  0  0  0  0  0  0  0  0  0  0
   19.6917    0.1481  -10.3800 C   0  0  0  0  0  0  0  0  0  0  0  0
   18.2981    0.9620   -9.7238 Cl  0  0  0  0  0  0  0  0  0  0  0  0
   20.7307    0.8569  -10.9413 C   0  0  0  0  0  0  0  0  0  0  0  0
   24.3009    0.4744   -9.5023 C   0  0  0  0  0  0  0  0  0  0  0  0
   25.0339    0.4306   -8.3241 C   0  0  0  0  0  0  0  0  0  0  0  0
   26.3723    0.1198   -8.3844 C   0  0  0  0  0  0  0  0  0  0  0  0
   27.3315   -0.0013   -7.4530 N   0  0  0  0  0  0  0  0  0  0  0  0
   28.4276   -0.3126   -8.0500 O   0  0  0  0  0  0  0  0  0  0  0  0
   28.2748   -0.4105   -9.3229 N   0  0  0  0  0  0  0  0  0  0  0  0
   26.9834   -0.1447   -9.5881 C   0  0  0  0  0  0  0  0  0  0  0  0
  1  2  2  0
  2  3  1  0
  2  4  1  0
  4  5  2  0
  5  6  1  0
  7  6  1  6
  7  8  1  0
  8  9  2  0
  9 10  1  0
 10 11  1  0
 10 12  2  0
 12 13  1  0
 13 14  1  0
 13 15  2  0
  5 16  1  0
 16 17  2  0
 17 18  1  0
 18 19  2  0
 19 20  1  0
 20 21  1  0
 21 22  2  0
 22  4  1  0
 15  8  1  0
 22 18  1  0
M  CHG  2   2   1   3  -1
M  END
$$$$
