_rank20
     RDKit          3D

 22 24  0  0  0  0  0  0  0  0999 V2000
   22.4435    0.1106  -14.6322 O   0  0  0  0  0  0  0  0  0  0  0  0
   23.3353   -0.2776  -13.8472 N   0  0  0  0  0  4  0  0  0  0  0  0
   24.6628   -0.1680  -14.1805 O   0  0  0  0  0  1  0  0  0  0  0  0
   23.0236   -0.8379  -12.6002 C   0  0  0  0  0  0  0  0  0  0  0  0
   23.8800   -0.5925  -11.5280 C   0  0  0  0  0  0  0  0  0  0  0  0
   25.0214    0.2118  -11.7434 N   0  0  0  0  0  0  0  0  0  0  0  0
   25.3403    1.3428  -10.9067 C   0  0  0  0  0  0  0  0  0  0  0  0
   25.7883    0.8809   -9.5534 C   0  0  0  0  0  0  0  0  0  0  0  0
   25.1160    1.2837   -8.4316 C   0  0  0  0  0  0  0  0  0  0  0  0
   25.5345    0.8523   -7.2010 C   0  0  0  0  0  0  0  0  0  0  0  0
   24.8756    1.2448   -6.0904 F   0  0  0  0  0  0  0  0  0  0  0  0
   26.6338    0.0156   -7.1346 C   0  0  0  0  0  0  0  0  0  0  0  0
   27.3198   -0.3990   -8.2390 C   0  0  0  0  0  0  0  0  0  0  0  0
   28.6971   -1.4543   -8.0830 Cl  0  0  0  0  0  0  0  0  0  0  0  0
   26.8946    0.0379   -9.4740 C   0  0  0  0  0  0  0  0  0  0  0  0
   23.6083   -1.1272  -10.2871 C   0  0  0  0  0  0  0  0  0  0  0  0
   22.4787   -1.9129  -10.1028 C   0  0  0  0  0  0  0  0  0  0  0  0
   21.6465   -2.1429  -11.1734 C   0  0  0  0  0  0  0  0  0  0  0  0
   20.5078   -2.8386  -11.3206 N   0  0  0  0  0  0  0  0  0  0  0  0
   20.1311   -2.7291  -12.5456 O   0  0  0  0  0  0  0  0  0  0  0  0
   20.9382   -2.0058  -13.2376 N   0  0  0  0  0  0  0  0  0  0  0  0
   21.9209   -1.6075  -12.4104 C   0  0  0  0  0  0  0  0  0  0  0  0
  1  2  2  0
  2  3  1  0
  2  4  1  0
  4  5  2  0
  5  6  1  0
  7  6  1  6
  7  8  1  0
  8  9  2  0
  9 10  1  0
 10 11  1  0
 10 12  2  0
 12 13  1  0
 13 14  1  0
 13 15  2  0
  5 16  1  0
 16 17  2  0
 17 18  1  0
 18 19  2  0
 19 20  1  0
 20 21  1  0
 21 22  2  0
 22  4  1  0
 15  8  1  0
 22 18  1  0
M  CHG  2   2   1   3  -1
M  END
$$$$
