_rank19
     RDKit          3D

 22 24  0  0  0  0  0  0  0  0999 V2000
   26.1313   -0.1738  -13.1122 O   0  0  0  0  0  0  0  0  0  0  0  0
   26.6913   -0.2860  -12.0004 N   0  0  0  0  0  4  0  0  0  0  0  0
   28.0598   -0.3439  -11.9043 O   0  0  0  0  0  1  0  0  0  0  0  0
   25.9538   -0.3570  -10.8100 C   0  0  0  0  0  0  0  0  0  0  0  0
   24.6865   -0.9365  -10.8462 C   0  0  0  0  0  0  0  0  0  0  0  0
   24.2024   -1.4294  -12.0786 N   0  0  0  0  0  0  0  0  0  0  0  0
   22.7951   -1.4867  -12.3901 C   0  0  0  0  0  0  0  0  0  0  0  0
   22.0098   -0.6701  -11.4093 C   0  0  0  0  0  0  0  0  0  0  0  0
   22.2944    0.6570  -11.2352 C   0  0  0  0  0  0  0  0  0  0  0  0
   21.5675    1.3924  -10.3373 C   0  0  0  0  0  0  0  0  0  0  0  0
   21.8422    2.7022  -10.1612 F   0  0  0  0  0  0  0  0  0  0  0  0
   20.5602    0.7611   -9.6304 C   0  0  0  0  0  0  0  0  0  0  0  0
   20.2584   -0.5605   -9.7870 C   0  0  0  0  0  0  0  0  0  0  0  0
   18.9755   -1.2926   -8.8633 Cl  0  0  0  0  0  0  0  0  0  0  0  0
   20.9927   -1.2953  -10.6913 C   0  0  0  0  0  0  0  0  0  0  0  0
   23.9304   -1.0231   -9.6971 C   0  0  0  0  0  0  0  0  0  0  0  0
   24.4312   -0.5321   -8.4990 C   0  0  0  0  0  0  0  0  0  0  0  0
   25.6838    0.0357   -8.4844 C   0  0  0  0  0  0  0  0  0  0  0  0
   26.4324    0.5875   -7.5163 N   0  0  0  0  0  0  0  0  0  0  0  0
   27.5417    0.9715   -8.0423 O   0  0  0  0  0  0  0  0  0  0  0  0
   27.5943    0.7166   -9.3014 N   0  0  0  0  0  0  0  0  0  0  0  0
   26.4354    0.1204   -9.6333 C   0  0  0  0  0  0  0  0  0  0  0  0
  1  2  2  0
  2  3  1  0
  2  4  1  0
  4  5  2  0
  5  6  1  0
  7  6  1  6
  7  8  1  0
  8  9  2  0
  9 10  1  0
 10 11  1  0
 10 12  2  0
 12 13  1  0
 13 14  1  0
 13 15  2  0
  5 16  1  0
 16 17  2  0
 17 18  1  0
 18 19  2  0
 19 20  1  0
 20 21  1  0
 21 22  2  0
 22  4  1  0
 15  8  1  0
 22 18  1  0
M  CHG  2   2   1   3  -1
M  END
$$$$
