_rank15
     RDKit          3D

 23 26  0  0  0  0  0  0  0  0999 V2000
   28.9993   -2.4049  -10.2189 Br  0  0  0  0  0  0  0  0  0  0  0  0
   27.8552   -1.1976   -9.2759 C   0  0  0  0  0  0  0  0  0  0  0  0
   28.1354   -0.7919   -7.9815 C   0  0  0  0  0  0  0  0  0  0  0  0
   27.2980    0.0815   -7.3135 C   0  0  0  0  0  0  0  0  0  0  0  0
   26.1524    0.5550   -7.9687 C   0  0  0  0  0  0  0  0  0  0  0  0
   25.8579    0.1639   -9.2520 C   0  0  0  0  0  0  0  0  0  0  0  0
   24.6607    0.6574   -9.9402 C   0  0  2  0  0  0  0  0  0  0  0  0
   23.4620   -0.2665   -9.7405 C   0  0  0  0  0  0  0  0  0  0  0  0
   22.4084    0.2019  -10.7392 C   0  0  2  0  0  0  0  0  0  0  0  0
   21.0543   -0.1765  -10.3490 C   0  0  0  0  0  0  0  0  0  0  0  0
   20.2577    0.7707   -9.7362 C   0  0  0  0  0  0  0  0  0  0  0  0
   18.9687    0.5168   -9.3300 C   0  0  0  0  0  0  0  0  0  0  0  0
   18.4534   -0.7408   -9.5465 C   0  0  0  0  0  0  0  0  0  0  0  0
   19.2224   -1.7187  -10.1589 C   0  0  0  0  0  0  0  0  0  0  0  0
   18.4431   -3.4399  -10.4271 Br  0  0  0  0  0  0  0  0  0  0  0  0
   20.4950   -1.4203  -10.5443 C   0  0  0  0  0  0  0  0  0  0  0  0
   22.8290   -0.2394  -12.0290 N   0  0  0  0  0  0  0  0  0  0  0  0
   22.3629   -0.8926  -13.0761 N   0  0  0  0  0  0  0  0  0  0  0  0
   23.2751   -0.9980  -14.0276 N   0  0  0  0  0  0  0  0  0  0  0  0
   24.3615   -0.3931  -13.5767 N   0  0  0  0  0  0  0  0  0  0  0  0
   24.1011    0.0793  -12.3459 C   0  0  0  0  0  0  0  0  0  0  0  0
   24.8550    0.8047  -11.3698 N   0  0  0  0  0  0  0  0  0  0  0  0
   26.7156   -0.7048   -9.8801 C   0  0  0  0  0  0  0  0  0  0  0  0
  1  2  1  0
  2  3  2  0
  3  4  1  0
  4  5  2  0
  5  6  1  0
  7  6  1  1
  8  7  1  6
  8  9  1  0
  9 10  1  1
 10 11  2  0
 11 12  1  0
 12 13  2  0
 13 14  1  0
 14 15  1  0
 14 16  2  0
  9 17  1  0
 17 18  1  0
 18 19  2  0
 19 20  1  0
 20 21  2  0
 21 22  1  0
  6 23  2  0
 23  2  1  0
 22  7  1  0
 16 10  1  0
 21 17  1  0
M  END
$$$$
