_rank2
     RDKit          3D

 22 24  0  0  0  0  0  0  0  0999 V2000
   24.1441    0.3710  -12.2083 O   0  0  0  0  0  0  0  0  0  0  0  0
   25.2820   -0.0293  -11.8809 N   0  0  0  0  0  4  0  0  0  0  0  0
   26.1982   -0.4014  -12.8335 O   0  0  0  0  0  1  0  0  0  0  0  0
   25.6720   -0.1158  -10.5369 C   0  0  0  0  0  0  0  0  0  0  0  0
   24.6879   -0.3175   -9.5704 C   0  0  0  0  0  0  0  0  0  0  0  0
   23.3426   -0.4292   -9.9870 N   0  0  0  0  0  0  0  0  0  0  0  0
   22.3081    0.4547   -9.5080 C   0  0  0  0  0  0  0  0  0  0  0  0
   20.9782    0.0552  -10.0712 C   0  0  0  0  0  0  0  0  0  0  0  0
   19.9226    0.9248  -10.0260 C   0  0  0  0  0  0  0  0  0  0  0  0
   18.7132    0.5479  -10.5464 C   0  0  0  0  0  0  0  0  0  0  0  0
   17.6680    1.4010  -10.5060 F   0  0  0  0  0  0  0  0  0  0  0  0
   18.6000   -0.7119  -11.1055 C   0  0  0  0  0  0  0  0  0  0  0  0
   19.6381   -1.5959  -11.1619 C   0  0  0  0  0  0  0  0  0  0  0  0
   19.4259   -3.1683  -11.8811 Cl  0  0  0  0  0  0  0  0  0  0  0  0
   20.8521   -1.2117  -10.6369 C   0  0  0  0  0  0  0  0  0  0  0  0
   25.0317   -0.4062   -8.2387 C   0  0  0  0  0  0  0  0  0  0  0  0
   26.3618   -0.2945   -7.8570 C   0  0  0  0  0  0  0  0  0  0  0  0
   27.3175   -0.0959   -8.8259 C   0  0  0  0  0  0  0  0  0  0  0  0
   28.6516    0.0487   -8.7862 N   0  0  0  0  0  0  0  0  0  0  0  0
   29.0695    0.2104   -9.9920 O   0  0  0  0  0  0  0  0  0  0  0  0
   28.1080    0.1847  -10.8453 N   0  0  0  0  0  0  0  0  0  0  0  0
   26.9705   -0.0079  -10.1541 C   0  0  0  0  0  0  0  0  0  0  0  0
  1  2  2  0
  2  3  1  0
  2  4  1  0
  4  5  2  0
  5  6  1  0
  7  6  1  6
  7  8  1  0
  8  9  2  0
  9 10  1  0
 10 11  1  0
 10 12  2  0
 12 13  1  0
 13 14  1  0
 13 15  2  0
  5 16  1  0
 16 17  2  0
 17 18  1  0
 18 19  2  0
 19 20  1  0
 20 21  1  0
 21 22  2  0
 22  4  1  0
 15  8  1  0
 22 18  1  0
M  CHG  2   2   1   3  -1
M  END
$$$$
