_rank16
     RDKit          3D

 23 26  0  0  0  0  0  0  0  0999 V2000
   18.4041    2.0457   -7.4540 Br  0  0  0  0  0  0  0  0  0  0  0  0
   18.9423    1.1289   -9.0432 C   0  0  0  0  0  0  0  0  0  0  0  0
   18.2268    1.2399  -10.2242 C   0  0  0  0  0  0  0  0  0  0  0  0
   18.6292    0.5705  -11.3644 C   0  0  0  0  0  0  0  0  0  0  0  0
   19.7800   -0.2286  -11.3094 C   0  0  0  0  0  0  0  0  0  0  0  0
   20.5023   -0.3510  -10.1476 C   0  0  0  0  0  0  0  0  0  0  0  0
   21.7065   -1.1857  -10.0867 C   0  0  2  0  0  0  0  0  0  0  0  0
   22.9849   -0.3519  -10.1139 C   0  0  0  0  0  0  0  0  0  0  0  0
   24.1199   -1.3434  -10.3502 C   0  0  2  0  0  0  0  0  0  0  0  0
   25.4094   -0.8459   -9.8827 C   0  0  0  0  0  0  0  0  0  0  0  0
   25.6207   -0.7442   -8.5217 C   0  0  0  0  0  0  0  0  0  0  0  0
   26.7985   -0.2880   -7.9780 C   0  0  0  0  0  0  0  0  0  0  0  0
   27.8103    0.0831   -8.8339 C   0  0  0  0  0  0  0  0  0  0  0  0
   27.6361   -0.0048  -10.2067 C   0  0  0  0  0  0  0  0  0  0  0  0
   29.0817    0.5269  -11.3334 Br  0  0  0  0  0  0  0  0  0  0  0  0
   26.4508   -0.4630  -10.6992 C   0  0  0  0  0  0  0  0  0  0  0  0
   24.0627   -1.7254  -11.7236 N   0  0  0  0  0  0  0  0  0  0  0  0
   24.8462   -1.8180  -12.7810 N   0  0  0  0  0  0  0  0  0  0  0  0
   24.1854   -2.2620  -13.8369 N   0  0  0  0  0  0  0  0  0  0  0  0
   22.9380   -2.4606  -13.4446 N   0  0  0  0  0  0  0  0  0  0  0  0
   22.8477   -2.1339  -12.1442 C   0  0  0  0  0  0  0  0  0  0  0  0
   21.7892   -2.1333  -11.1815 N   0  0  0  0  0  0  0  0  0  0  0  0
   20.0688    0.3305   -9.0374 C   0  0  0  0  0  0  0  0  0  0  0  0
  1  2  1  0
  2  3  2  0
  3  4  1  0
  4  5  2  0
  5  6  1  0
  7  6  1  6
  8  7  1  6
  8  9  1  0
  9 10  1  6
 10 11  2  0
 11 12  1  0
 12 13  2  0
 13 14  1  0
 14 15  1  0
 14 16  2  0
  9 17  1  0
 17 18  1  0
 18 19  2  0
 19 20  1  0
 20 21  2  0
 21 22  1  0
  6 23  2  0
 23  2  1  0
 22  7  1  0
 16 10  1  0
 21 17  1  0
M  END
$$$$
