_rank5
     RDKit          3D

 22 24  0  0  0  0  0  0  0  0999 V2000
   27.0948   -1.7045  -12.0490 O   0  0  0  0  0  0  0  0  0  0  0  0
   26.5677   -0.5835  -11.8821 N   0  0  0  0  0  4  0  0  0  0  0  0
   26.5817    0.3567  -12.8826 O   0  0  0  0  0  1  0  0  0  0  0  0
   25.9429   -0.2377  -10.6754 C   0  0  0  0  0  0  0  0  0  0  0  0
   24.5547   -0.1125  -10.6573 C   0  0  0  0  0  0  0  0  0  0  0  0
   23.8384   -0.3426  -11.8532 N   0  0  0  0  0  0  0  0  0  0  0  0
   22.6671    0.4188  -12.2124 C   0  0  0  0  0  0  0  0  0  0  0  0
   21.4807   -0.0454  -11.4234 C   0  0  0  0  0  0  0  0  0  0  0  0
   20.7130    0.8577  -10.7396 C   0  0  0  0  0  0  0  0  0  0  0  0
   19.6301    0.4204  -10.0244 C   0  0  0  0  0  0  0  0  0  0  0  0
   18.8680    1.3058   -9.3483 F   0  0  0  0  0  0  0  0  0  0  0  0
   19.3473   -0.9334  -10.0184 C   0  0  0  0  0  0  0  0  0  0  0  0
   20.0980   -1.8523  -10.6922 C   0  0  0  0  0  0  0  0  0  0  0  0
   19.6847   -3.5440  -10.6417 Cl  0  0  0  0  0  0  0  0  0  0  0  0
   21.1860   -1.4070  -11.4098 C   0  0  0  0  0  0  0  0  0  0  0  0
   23.9042    0.2276   -9.4907 C   0  0  0  0  0  0  0  0  0  0  0  0
   24.6326    0.4466   -8.3293 C   0  0  0  0  0  0  0  0  0  0  0  0
   26.0014    0.3179   -8.3682 C   0  0  0  0  0  0  0  0  0  0  0  0
   26.9652    0.4586   -7.4444 N   0  0  0  0  0  0  0  0  0  0  0  0
   28.0957    0.2227   -8.0109 O   0  0  0  0  0  0  0  0  0  0  0  0
   27.9619   -0.0683   -9.2561 N   0  0  0  0  0  0  0  0  0  0  0  0
   26.6469   -0.0217   -9.5344 C   0  0  0  0  0  0  0  0  0  0  0  0
  1  2  2  0
  2  3  1  0
  2  4  1  0
  4  5  2  0
  5  6  1  0
  7  6  1  6
  7  8  1  0
  8  9  2  0
  9 10  1  0
 10 11  1  0
 10 12  2  0
 12 13  1  0
 13 14  1  0
 13 15  2  0
  5 16  1  0
 16 17  2  0
 17 18  1  0
 18 19  2  0
 19 20  1  0
 20 21  1  0
 21 22  2  0
 22  4  1  0
 15  8  1  0
 22 18  1  0
M  CHG  2   2   1   3  -1
M  END
$$$$
