_rank5
     RDKit          3D

 23 26  0  0  0  0  0  0  0  0999 V2000
   19.1294    2.5138  -10.3605 Br  0  0  0  0  0  0  0  0  0  0  0  0
   19.6128    0.6639  -10.3648 C   0  0  0  0  0  0  0  0  0  0  0  0
   18.6894   -0.3293  -10.0830 C   0  0  0  0  0  0  0  0  0  0  0  0
   19.0550   -1.6622  -10.0902 C   0  0  0  0  0  0  0  0  0  0  0  0
   20.3831   -1.9980  -10.3889 C   0  0  0  0  0  0  0  0  0  0  0  0
   21.3128   -1.0271  -10.6709 C   0  0  0  0  0  0  0  0  0  0  0  0
   22.7026   -1.3749  -10.9839 C   0  0  2  0  0  0  0  0  0  0  0  0
   23.6782   -0.8354   -9.9411 C   0  0  0  0  0  0  0  0  0  0  0  0
   25.0674   -1.0058  -10.5477 C   0  0  2  0  0  0  0  0  0  0  0  0
   26.1204   -1.0586   -9.5390 C   0  0  0  0  0  0  0  0  0  0  0  0
   26.5364   -2.2954   -9.0870 C   0  0  0  0  0  0  0  0  0  0  0  0
   27.5202   -2.4553   -8.1397 C   0  0  0  0  0  0  0  0  0  0  0  0
   28.1146   -1.3275   -7.6213 C   0  0  0  0  0  0  0  0  0  0  0  0
   27.7240   -0.0679   -8.0500 C   0  0  0  0  0  0  0  0  0  0  0  0
   28.5915    1.4514   -7.2878 Br  0  0  0  0  0  0  0  0  0  0  0  0
   26.7443    0.0406   -8.9911 C   0  0  0  0  0  0  0  0  0  0  0  0
   25.2144    0.0024  -11.5465 N   0  0  0  0  0  0  0  0  0  0  0  0
   26.0574    0.9494  -11.9111 N   0  0  0  0  0  0  0  0  0  0  0  0
   25.6265    1.5970  -12.9804 N   0  0  0  0  0  0  0  0  0  0  0  0
   24.4699    1.0481  -13.3127 N   0  0  0  0  0  0  0  0  0  0  0  0
   24.2033    0.0638  -12.4375 C   0  0  0  0  0  0  0  0  0  0  0  0
   23.1312   -0.8697  -12.2741 N   0  0  0  0  0  0  0  0  0  0  0  0
   20.9088    0.2849  -10.6532 C   0  0  0  0  0  0  0  0  0  0  0  0
  1  2  1  0
  2  3  2  0
  3  4  1  0
  4  5  2  0
  5  6  1  0
  7  6  1  1
  8  7  1  6
  8  9  1  0
  9 10  1  1
 10 11  2  0
 11 12  1  0
 12 13  2  0
 13 14  1  0
 14 15  1  0
 14 16  2  0
  9 17  1  0
 17 18  1  0
 18 19  2  0
 19 20  1  0
 20 21  2  0
 21 22  1  0
  6 23  2  0
 23  2  1  0
 22  7  1  0
 16 10  1  0
 21 17  1  0
M  END
$$$$
