_rank9
     RDKit          3D

 23 26  0  0  0  0  0  0  0  0999 V2000
   18.5545    1.9458  -10.8753 Br  0  0  0  0  0  0  0  0  0  0  0  0
   19.3261    0.2039  -10.7132 C   0  0  0  0  0  0  0  0  0  0  0  0
   18.5687   -0.8951  -10.3428 C   0  0  0  0  0  0  0  0  0  0  0  0
   19.1418   -2.1477  -10.2301 C   0  0  0  0  0  0  0  0  0  0  0  0
   20.5105   -2.2922  -10.4977 C   0  0  0  0  0  0  0  0  0  0  0  0
   21.2778   -1.2142  -10.8662 C   0  0  0  0  0  0  0  0  0  0  0  0
   22.7095   -1.3619  -11.1470 C   0  0  2  0  0  0  0  0  0  0  0  0
   23.5759   -0.8096  -10.0180 C   0  0  0  0  0  0  0  0  0  0  0  0
   24.9948   -0.7546  -10.5752 C   0  0  2  0  0  0  0  0  0  0  0  0
   26.0122   -0.7752   -9.5296 C   0  0  0  0  0  0  0  0  0  0  0  0
   25.6003   -0.8280   -8.2125 C   0  0  0  0  0  0  0  0  0  0  0  0
   26.4769   -0.8513   -7.1533 C   0  0  0  0  0  0  0  0  0  0  0  0
   27.8260   -0.8204   -7.4235 C   0  0  0  0  0  0  0  0  0  0  0  0
   28.2785   -0.7672   -8.7331 C   0  0  0  0  0  0  0  0  0  0  0  0
   30.1626   -0.7268   -9.0335 Br  0  0  0  0  0  0  0  0  0  0  0  0
   27.3717   -0.7458   -9.7503 C   0  0  0  0  0  0  0  0  0  0  0  0
   25.0492    0.3533  -11.4726 N   0  0  0  0  0  0  0  0  0  0  0  0
   25.7805    1.4245  -11.7136 N   0  0  0  0  0  0  0  0  0  0  0  0
   25.3086    2.1133  -12.7390 N   0  0  0  0  0  0  0  0  0  0  0  0
   24.2403    1.4633  -13.1699 N   0  0  0  0  0  0  0  0  0  0  0  0
   24.0684    0.3763  -12.3986 C   0  0  0  0  0  0  0  0  0  0  0  0
   23.1150   -0.6901  -12.3667 N   0  0  0  0  0  0  0  0  0  0  0  0
   20.6699    0.0127  -10.9666 C   0  0  0  0  0  0  0  0  0  0  0  0
  1  2  1  0
  2  3  2  0
  3  4  1  0
  4  5  2  0
  5  6  1  0
  7  6  1  1
  8  7  1  6
  8  9  1  0
  9 10  1  1
 10 11  2  0
 11 12  1  0
 12 13  2  0
 13 14  1  0
 14 15  1  0
 14 16  2  0
  9 17  1  0
 17 18  1  0
 18 19  2  0
 19 20  1  0
 20 21  2  0
 21 22  1  0
  6 23  2  0
 23  2  1  0
 22  7  1  0
 16 10  1  0
 21 17  1  0
M  END
$$$$
