_rank12
     RDKit          3D

 23 26  0  0  0  0  0  0  0  0999 V2000
   17.6735   -0.1139  -12.1842 Br  0  0  0  0  0  0  0  0  0  0  0  0
   19.1039    0.0385  -10.9246 C   0  0  0  0  0  0  0  0  0  0  0  0
   18.9402    0.6921   -9.7144 C   0  0  0  0  0  0  0  0  0  0  0  0
   19.9843    0.7935   -8.8146 C   0  0  0  0  0  0  0  0  0  0  0  0
   21.2209    0.2216   -9.1457 C   0  0  0  0  0  0  0  0  0  0  0  0
   21.4023   -0.4304  -10.3409 C   0  0  0  0  0  0  0  0  0  0  0  0
   22.6943   -1.0299  -10.6903 C   0  0  2  0  0  0  0  0  0  0  0  0
   23.8103   -0.5747   -9.7535 C   0  0  0  0  0  0  0  0  0  0  0  0
   25.1111   -1.0245  -10.4114 C   0  0  2  0  0  0  0  0  0  0  0  0
   26.2055   -1.1670   -9.4570 C   0  0  0  0  0  0  0  0  0  0  0  0
   26.3674   -2.3809   -8.8187 C   0  0  0  0  0  0  0  0  0  0  0  0
   27.3654   -2.6193   -7.9033 C   0  0  0  0  0  0  0  0  0  0  0  0
   28.2408   -1.5977   -7.6133 C   0  0  0  0  0  0  0  0  0  0  0  0
   28.1108   -0.3645   -8.2337 C   0  0  0  0  0  0  0  0  0  0  0  0
   29.3602    1.0059   -7.7834 Br  0  0  0  0  0  0  0  0  0  0  0  0
   27.1057   -0.1753   -9.1344 C   0  0  0  0  0  0  0  0  0  0  0  0
   25.3530   -0.1423  -11.5063 N   0  0  0  0  0  0  0  0  0  0  0  0
   26.3120    0.6171  -12.0003 N   0  0  0  0  0  0  0  0  0  0  0  0
   25.9220    1.2353  -13.1023 N   0  0  0  0  0  0  0  0  0  0  0  0
   24.6728    0.8607  -13.3225 N   0  0  0  0  0  0  0  0  0  0  0  0
   24.3089    0.0115  -12.3466 C   0  0  0  0  0  0  0  0  0  0  0  0
   23.1133   -0.7132  -12.0422 N   0  0  0  0  0  0  0  0  0  0  0  0
   20.3397   -0.5089  -11.2067 C   0  0  0  0  0  0  0  0  0  0  0  0
  1  2  1  0
  2  3  2  0
  3  4  1  0
  4  5  2  0
  5  6  1  0
  7  6  1  1
  8  7  1  6
  8  9  1  0
  9 10  1  1
 10 11  2  0
 11 12  1  0
 12 13  2  0
 13 14  1  0
 14 15  1  0
 14 16  2  0
  9 17  1  0
 17 18  1  0
 18 19  2  0
 19 20  1  0
 20 21  2  0
 21 22  1  0
  6 23  2  0
 23  2  1  0
 22  7  1  0
 16 10  1  0
 21 17  1  0
M  END
$$$$
