_rank7
     RDKit          3D

 23 26  0  0  0  0  0  0  0  0999 V2000
   17.5089   -2.4524  -10.0213 Br  0  0  0  0  0  0  0  0  0  0  0  0
   18.8824   -1.1403  -10.2396 C   0  0  0  0  0  0  0  0  0  0  0  0
   18.6212    0.2139  -10.1107 C   0  0  0  0  0  0  0  0  0  0  0  0
   19.6254    1.1498  -10.2716 C   0  0  0  0  0  0  0  0  0  0  0  0
   20.9219    0.7067  -10.5693 C   0  0  0  0  0  0  0  0  0  0  0  0
   21.2002   -0.6318  -10.7010 C   0  0  0  0  0  0  0  0  0  0  0  0
   22.5551   -1.0986  -11.0121 C   0  0  2  0  0  0  0  0  0  0  0  0
   23.5616   -0.6972   -9.9369 C   0  0  0  0  0  0  0  0  0  0  0  0
   24.9374   -0.9758  -10.5341 C   0  0  2  0  0  0  0  0  0  0  0  0
   25.9649   -1.1696   -9.5164 C   0  0  0  0  0  0  0  0  0  0  0  0
   26.2893   -2.4602   -9.1471 C   0  0  0  0  0  0  0  0  0  0  0  0
   27.2419   -2.7516   -8.1992 C   0  0  0  0  0  0  0  0  0  0  0  0
   27.8996   -1.7053   -7.5936 C   0  0  0  0  0  0  0  0  0  0  0  0
   27.6016   -0.3955   -7.9377 C   0  0  0  0  0  0  0  0  0  0  0  0
   28.5529    1.0051   -7.0573 Br  0  0  0  0  0  0  0  0  0  0  0  0
   26.6496   -0.1559   -8.8829 C   0  0  0  0  0  0  0  0  0  0  0  0
   25.1952    0.0527  -11.4886 N   0  0  0  0  0  0  0  0  0  0  0  0
   26.1302    0.9283  -11.8042 N   0  0  0  0  0  0  0  0  0  0  0  0
   25.7795    1.6564  -12.8508 N   0  0  0  0  0  0  0  0  0  0  0  0
   24.5810    1.2347  -13.2187 N   0  0  0  0  0  0  0  0  0  0  0  0
   24.2084    0.2463  -12.3880 C   0  0  0  0  0  0  0  0  0  0  0  0
   23.0497   -0.5857  -12.2754 N   0  0  0  0  0  0  0  0  0  0  0  0
   20.1744   -1.5288  -10.5334 C   0  0  0  0  0  0  0  0  0  0  0  0
  1  2  1  0
  2  3  2  0
  3  4  1  0
  4  5  2  0
  5  6  1  0
  7  6  1  1
  8  7  1  6
  8  9  1  0
  9 10  1  1
 10 11  2  0
 11 12  1  0
 12 13  2  0
 13 14  1  0
 14 15  1  0
 14 16  2  0
  9 17  1  0
 17 18  1  0
 18 19  2  0
 19 20  1  0
 20 21  2  0
 21 22  1  0
  6 23  2  0
 23  2  1  0
 22  7  1  0
 16 10  1  0
 21 17  1  0
M  END
$$$$
