_rank13
     RDKit          3D

 15 16  0  0  0  0  0  0  0  0999 V2000
   27.6977    0.9726   -6.9833 N   0  0  0  0  0  0  0  0  0  0  0  0
   27.2225    0.4252   -7.9097 C   0  0  0  0  0  0  0  0  0  0  0  0
   26.6339   -0.2206   -9.0478 C   0  0  0  0  0  0  0  0  0  0  0  0
   27.4090   -0.9814   -9.8952 C   0  0  0  0  0  0  0  0  0  0  0  0
   26.8434   -1.6131  -11.0052 C   0  0  0  0  0  0  0  0  0  0  0  0
   27.6444   -2.3507  -11.8102 F   0  0  0  0  0  0  0  0  0  0  0  0
   25.4908   -1.4567  -11.2320 C   0  0  0  0  0  0  0  0  0  0  0  0
   24.6918   -0.7067  -10.4083 C   0  0  0  0  0  0  0  0  0  0  0  0
   23.2705   -0.5313  -10.6306 C   0  0  1  0  0  0  0  0  0  0  0  0
   22.5259   -1.8287  -10.9010 C   0  0  0  0  0  0  0  0  0  0  0  0
   21.0934   -1.3289  -10.8405 C   0  0  1  0  0  0  0  0  0  0  0  0
   20.2295   -2.2544  -10.3435 F   0  0  0  0  0  0  0  0  0  0  0  0
   21.1802   -0.0792   -9.9833 C   0  0  0  0  0  0  0  0  0  0  0  0
   22.5426   -0.0322   -9.4786 N   0  0  0  0  0  0  0  0  0  0  0  0
   25.2828   -0.0967   -9.3214 C   0  0  0  0  0  0  0  0  0  0  0  0
  1  2  3  0
  2  3  1  0
  3  4  2  0
  4  5  1  0
  5  6  1  0
  5  7  2  0
  7  8  1  0
  9  8  1  1
 10  9  1  6
 10 11  1  0
 11 12  1  1
 11 13  1  0
 13 14  1  1
  8 15  2  0
 15  3  1  0
 14  9  1  0
M  END
$$$$
