_rank18
     RDKit          3D

 15 16  0  0  0  0  0  0  0  0999 V2000
   23.9358   -0.5127   -5.7380 N   0  0  0  0  0  0  0  0  0  0  0  0
   23.7650   -0.5343   -6.9016 C   0  0  0  0  0  0  0  0  0  0  0  0
   23.5497   -0.5366   -8.3202 C   0  0  0  0  0  0  0  0  0  0  0  0
   22.3464   -0.9585   -8.8415 C   0  0  0  0  0  0  0  0  0  0  0  0
   22.1292   -0.9638  -10.2212 C   0  0  0  0  0  0  0  0  0  0  0  0
   20.9306   -1.3870  -10.6880 F   0  0  0  0  0  0  0  0  0  0  0  0
   23.1483   -0.5365  -11.0486 C   0  0  0  0  0  0  0  0  0  0  0  0
   24.3571   -0.1106  -10.5620 C   0  0  0  0  0  0  0  0  0  0  0  0
   25.4381    0.3413  -11.4150 C   0  0  1  0  0  0  0  0  0  0  0  0
   26.8023   -0.1976  -11.0159 C   0  0  0  0  0  0  0  0  0  0  0  0
   27.6234    0.2499  -12.2122 C   0  0  1  0  0  0  0  0  0  0  0  0
   28.6249   -0.6168  -12.5219 F   0  0  0  0  0  0  0  0  0  0  0  0
   26.5993    0.3928  -13.3233 C   0  0  0  0  0  0  0  0  0  0  0  0
   25.3504   -0.1229  -12.7872 N   0  0  0  0  0  0  0  0  0  0  0  0
   24.5377   -0.1183   -9.1945 C   0  0  0  0  0  0  0  0  0  0  0  0
  1  2  3  0
  2  3  1  0
  3  4  2  0
  4  5  1  0
  5  6  1  0
  5  7  2  0
  7  8  1  0
  9  8  1  1
 10  9  1  6
 10 11  1  0
 11 12  1  6
 11 13  1  0
 13 14  1  1
  8 15  2  0
 15  3  1  0
 14  9  1  0
M  END
$$$$
