_rank12
     RDKit          3D

 15 16  0  0  0  0  0  0  0  0999 V2000
   27.5592    0.4139   -6.9064 N   0  0  0  0  0  0  0  0  0  0  0  0
   27.0889    0.2160   -7.9663 C   0  0  0  0  0  0  0  0  0  0  0  0
   26.4933   -0.0303   -9.2483 C   0  0  0  0  0  0  0  0  0  0  0  0
   27.2848   -0.2078  -10.3616 C   0  0  0  0  0  0  0  0  0  0  0  0
   26.7126   -0.4478  -11.6129 C   0  0  0  0  0  0  0  0  0  0  0  0
   27.5303   -0.6161  -12.6791 F   0  0  0  0  0  0  0  0  0  0  0  0
   25.3364   -0.5029  -11.7066 C   0  0  0  0  0  0  0  0  0  0  0  0
   24.5206   -0.3306  -10.6184 C   0  0  0  0  0  0  0  0  0  0  0  0
   23.0745   -0.3850  -10.6977 C   0  0  1  0  0  0  0  0  0  0  0  0
   22.5353   -1.7216  -11.1808 C   0  0  0  0  0  0  0  0  0  0  0  0
   21.0539   -1.5204  -10.9155 C   0  0  1  0  0  0  0  0  0  0  0  0
   20.4173   -2.6697  -10.5638 F   0  0  0  0  0  0  0  0  0  0  0  0
   21.0199   -0.4666   -9.8235 C   0  0  0  0  0  0  0  0  0  0  0  0
   22.4010   -0.2638   -9.4180 N   0  0  0  0  0  0  0  0  0  0  0  0
   25.1189   -0.0954   -9.3980 C   0  0  0  0  0  0  0  0  0  0  0  0
  1  2  3  0
  2  3  1  0
  3  4  2  0
  4  5  1  0
  5  6  1  0
  5  7  2  0
  7  8  1  0
  9  8  1  1
 10  9  1  6
 10 11  1  0
 11 12  1  1
 11 13  1  0
 13 14  1  1
  8 15  2  0
 15  3  1  0
 14  9  1  0
M  END
$$$$
