_rank9
     RDKit          3D

 15 16  0  0  0  0  0  0  0  0999 V2000
   27.6492    0.2197   -7.3533 N   0  0  0  0  0  0  0  0  0  0  0  0
   27.1025    0.1264   -8.3907 C   0  0  0  0  0  0  0  0  0  0  0  0
   26.4242    0.0344   -9.6517 C   0  0  0  0  0  0  0  0  0  0  0  0
   27.1364    0.0726  -10.8302 C   0  0  0  0  0  0  0  0  0  0  0  0
   26.4834   -0.0163  -12.0617 C   0  0  0  0  0  0  0  0  0  0  0  0
   27.2248    0.0257  -13.1940 F   0  0  0  0  0  0  0  0  0  0  0  0
   25.1088   -0.1433  -12.0690 C   0  0  0  0  0  0  0  0  0  0  0  0
   24.3708   -0.1845  -10.9145 C   0  0  0  0  0  0  0  0  0  0  0  0
   22.9277   -0.3173  -10.9028 C   0  0  1  0  0  0  0  0  0  0  0  0
   22.4161   -1.5328  -11.6587 C   0  0  0  0  0  0  0  0  0  0  0  0
   20.9544   -1.5031  -11.2487 C   0  0  1  0  0  0  0  0  0  0  0  0
   20.4076   -2.7442  -11.1447 F   0  0  0  0  0  0  0  0  0  0  0  0
   20.9611   -0.7468   -9.9328 C   0  0  0  0  0  0  0  0  0  0  0  0
   22.3600   -0.5528   -9.5881 N   0  0  0  0  0  0  0  0  0  0  0  0
   25.0476   -0.0941   -9.7160 C   0  0  0  0  0  0  0  0  0  0  0  0
  1  2  3  0
  2  3  1  0
  3  4  2  0
  4  5  1  0
  5  6  1  0
  5  7  2  0
  7  8  1  0
  9  8  1  1
 10  9  1  6
 10 11  1  0
 11 12  1  1
 11 13  1  0
 13 14  1  1
  8 15  2  0
 15  3  1  0
 14  9  1  0
M  END
$$$$
