_rank8
     RDKit          3D

 15 16  0  0  0  0  0  0  0  0999 V2000
   27.4854    0.0956  -13.1835 N   0  0  0  0  0  0  0  0  0  0  0  0
   26.8205   -0.0859  -12.2302 C   0  0  0  0  0  0  0  0  0  0  0  0
   26.0072   -0.2825  -11.0646 C   0  0  0  0  0  0  0  0  0  0  0  0
   26.5542   -0.1657   -9.8057 C   0  0  0  0  0  0  0  0  0  0  0  0
   25.7690   -0.3557   -8.6663 C   0  0  0  0  0  0  0  0  0  0  0  0
   26.3501   -0.2308   -7.4496 F   0  0  0  0  0  0  0  0  0  0  0  0
   24.4335   -0.6629   -8.8321 C   0  0  0  0  0  0  0  0  0  0  0  0
   23.8585   -0.7863  -10.0705 C   0  0  0  0  0  0  0  0  0  0  0  0
   22.4587   -1.1081  -10.2639 C   0  0  1  0  0  0  0  0  0  0  0  0
   21.6252    0.0560  -10.7745 C   0  0  0  0  0  0  0  0  0  0  0  0
   20.3271   -0.6663  -11.0890 C   0  0  1  0  0  0  0  0  0  0  0  0
   19.6701   -0.1358  -12.1553 F   0  0  0  0  0  0  0  0  0  0  0  0
   20.7566   -2.1046  -11.3138 C   0  0  0  0  0  0  0  0  0  0  0  0
   22.2101   -2.0972  -11.2963 N   0  0  0  0  0  0  0  0  0  0  0  0
   24.6627   -0.5922  -11.1743 C   0  0  0  0  0  0  0  0  0  0  0  0
  1  2  3  0
  2  3  1  0
  3  4  2  0
  4  5  1  0
  5  6  1  0
  5  7  2  0
  7  8  1  0
  9  8  1  6
 10  9  1  6
 10 11  1  0
 11 12  1  6
 11 13  1  0
 13 14  1  1
  8 15  2  0
 15  3  1  0
 14  9  1  0
M  END
$$$$
