_rank20
     RDKit          3D

 15 16  0  0  0  0  0  0  0  0999 V2000
   17.9373    2.6967   -8.8994 N   0  0  0  0  0  0  0  0  0  0  0  0
   18.7127    1.8663   -9.2041 C   0  0  0  0  0  0  0  0  0  0  0  0
   19.6520    0.8563   -9.5996 C   0  0  0  0  0  0  0  0  0  0  0  0
   20.6956    0.5119   -8.7691 C   0  0  0  0  0  0  0  0  0  0  0  0
   21.6140   -0.4702   -9.1470 C   0  0  0  0  0  0  0  0  0  0  0  0
   22.6238   -0.7756   -8.2981 F   0  0  0  0  0  0  0  0  0  0  0  0
   21.4507   -1.0864  -10.3714 C   0  0  0  0  0  0  0  0  0  0  0  0
   20.4233   -0.7670  -11.2210 C   0  0  0  0  0  0  0  0  0  0  0  0
   20.2361   -1.4030  -12.5097 C   0  0  1  0  0  0  0  0  0  0  0  0
   21.5037   -1.4847  -13.3448 C   0  0  0  0  0  0  0  0  0  0  0  0
   21.0234   -2.3883  -14.4665 C   0  0  1  0  0  0  0  0  0  0  0  0
   22.0019   -3.2004  -14.9490 F   0  0  0  0  0  0  0  0  0  0  0  0
   19.8693   -3.1551  -13.8469 C   0  0  0  0  0  0  0  0  0  0  0  0
   19.8652   -2.8041  -12.4363 N   0  0  0  0  0  0  0  0  0  0  0  0
   19.5346    0.2072  -10.8164 C   0  0  0  0  0  0  0  0  0  0  0  0
  1  2  3  0
  2  3  1  0
  3  4  2  0
  4  5  1  0
  5  6  1  0
  5  7  2  0
  7  8  1  0
  9  8  1  1
 10  9  1  6
 10 11  1  0
 11 12  1  1
 11 13  1  0
 13 14  1  1
  8 15  2  0
 15  3  1  0
 14  9  1  0
M  END
$$$$
