_rank19
     RDKit          3D

 17 18  0  0  0  0  0  0  0  0999 V2000
   21.6231   -1.3494   -6.1682 N   0  0  0  0  0  0  0  0  0  0  0  0
   21.6491   -1.4110   -7.2747 C   0  0  0  0  0  0  0  0  0  0  0  0
   21.7081   -1.4849   -8.7556 C   0  0  0  0  0  0  0  0  0  0  0  0
   20.6670   -2.2191   -9.3984 C   0  0  0  0  0  0  0  0  0  0  0  0
   20.7268   -2.2569  -10.7698 C   0  0  0  0  0  0  0  0  0  0  0  0
   21.6490   -1.6893  -11.5546 C   0  0  0  0  0  0  0  0  0  0  0  0
   21.5795   -1.8377  -12.9671 N   0  0  0  0  0  0  0  0  0  0  0  0
   22.6962   -0.9598  -10.9581 C   0  0  0  0  0  0  0  0  0  0  0  0
   23.6481   -0.3922  -11.5698 O   0  0  0  0  0  0  0  0  0  0  0  0
   24.6203    0.2530  -12.1618 C   0  0  0  0  0  0  0  0  0  0  0  0
   25.9789    0.4328  -11.5754 C   0  0  1  0  0  0  0  0  0  0  0  0
   26.8790   -0.7720  -11.8458 C   0  0  0  0  0  0  0  0  0  0  0  0
   27.0441   -0.9715  -13.2694 N   0  0  0  0  0  0  0  0  0  0  0  0
   26.7352    1.6897  -11.7407 C   0  0  0  0  0  0  0  0  0  0  0  0
   27.1740    1.5044  -10.2574 C   0  0  0  0  0  0  0  0  0  0  0  0
   25.8882    0.7303  -10.0752 C   0  0  0  0  0  0  0  0  0  0  0  0
   22.6282   -0.9177   -9.5199 C   0  0  0  0  0  0  0  0  0  0  0  0
  1  2  3  0
  2  3  1  0
  3  4  2  0
  4  5  1  0
  5  6  2  0
  6  7  1  0
  6  8  1  0
  8  9  1  0
 10  9  1  1
 11 10  1  6
 11 12  1  0
 12 13  1  1
 14 11  1  1
 15 14  1  6
 16 15  1  6
  8 17  2  0
 17  3  1  0
 16 11  1  0
M  END
$$$$
