_rank4
     RDKit          3D

 17 18  0  0  0  0  0  0  0  0999 V2000
   19.2274    1.5278   -8.1679 N   0  0  0  0  0  0  0  0  0  0  0  0
   19.7840    0.9092   -8.9003 C   0  0  0  0  0  0  0  0  0  0  0  0
   20.5383    0.0671   -9.8614 C   0  0  0  0  0  0  0  0  0  0  0  0
   19.7955   -0.9435  -10.5419 C   0  0  0  0  0  0  0  0  0  0  0  0
   20.5064   -1.6971  -11.4433 C   0  0  0  0  0  0  0  0  0  0  0  0
   21.8052   -1.5873  -11.7422 C   0  0  0  0  0  0  0  0  0  0  0  0
   22.3999   -2.4624  -12.6924 N   0  0  0  0  0  0  0  0  0  0  0  0
   22.5746   -0.6048  -11.0884 C   0  0  0  0  0  0  0  0  0  0  0  0
   23.8135   -0.4021  -11.2509 O   0  0  0  0  0  0  0  0  0  0  0  0
   25.0778   -0.1292  -11.4484 C   0  0  0  0  0  0  0  0  0  0  0  0
   26.1252   -0.2235  -10.3920 C   0  0  1  0  0  0  0  0  0  0  0  0
   27.2282   -1.2106  -10.7715 C   0  0  0  0  0  0  0  0  0  0  0  0
   27.9305   -1.6637   -9.5904 N   0  0  0  0  0  0  0  0  0  0  0  0
   26.7035    0.9802   -9.7631 C   0  0  0  0  0  0  0  0  0  0  0  0
   26.6495    0.1852   -8.4243 C   0  0  0  0  0  0  0  0  0  0  0  0
   25.5019   -0.5832   -9.0395 C   0  0  0  0  0  0  0  0  0  0  0  0
   21.8253    0.1874  -10.1472 C   0  0  0  0  0  0  0  0  0  0  0  0
  1  2  3  0
  2  3  1  0
  3  4  2  0
  4  5  1  0
  5  6  2  0
  6  7  1  0
  6  8  1  0
  8  9  1  0
 10  9  1  1
 11 10  1  6
 11 12  1  0
 12 13  1  1
 14 11  1  1
 15 14  1  6
 16 15  1  6
  8 17  2  0
 17  3  1  0
 16 11  1  0
M  END
$$$$
