_rank16
     RDKit          3D

 17 18  0  0  0  0  0  0  0  0999 V2000
   19.9944   -3.0060   -8.2208 N   0  0  0  0  0  0  0  0  0  0  0  0
   20.5704   -2.4877   -9.0135 C   0  0  0  0  0  0  0  0  0  0  0  0
   21.3305   -1.8090  -10.0922 C   0  0  0  0  0  0  0  0  0  0  0  0
   20.7577   -1.8516  -11.3984 C   0  0  0  0  0  0  0  0  0  0  0  0
   21.4648   -1.1988  -12.3782 C   0  0  0  0  0  0  0  0  0  0  0  0
   22.6205   -0.5406  -12.2385 C   0  0  0  0  0  0  0  0  0  0  0  0
   23.2389    0.0712  -13.3635 N   0  0  0  0  0  0  0  0  0  0  0  0
   23.2209   -0.4797  -10.9656 C   0  0  0  0  0  0  0  0  0  0  0  0
   24.3204    0.0836  -10.6893 O   0  0  0  0  0  0  0  0  0  0  0  0
   25.4258    0.6928  -10.3447 C   0  0  0  0  0  0  0  0  0  0  0  0
   26.6535   -0.0110   -9.8764 C   0  0  1  0  0  0  0  0  0  0  0  0
   27.4017   -0.6776  -11.0300 C   0  0  0  0  0  0  0  0  0  0  0  0
   28.5547    0.1103  -11.4082 N   0  0  0  0  0  0  0  0  0  0  0  0
   27.6042    0.6249   -8.9434 C   0  0  0  0  0  0  0  0  0  0  0  0
   27.7099   -0.7697   -8.2571 C   0  0  0  0  0  0  0  0  0  0  0  0
   26.3137   -1.0240   -8.7784 C   0  0  0  0  0  0  0  0  0  0  0  0
   22.4747   -1.1610   -9.9389 C   0  0  0  0  0  0  0  0  0  0  0  0
  1  2  3  0
  2  3  1  0
  3  4  2  0
  4  5  1  0
  5  6  2  0
  6  7  1  0
  6  8  1  0
  8  9  1  0
 10  9  1  1
 11 10  1  6
 11 12  1  0
 12 13  1  1
 14 11  1  1
 15 14  1  6
 16 15  1  6
  8 17  2  0
 17  3  1  0
 16 11  1  0
M  END
$$$$
