_rank6
     RDKit          3D

 17 18  0  0  0  0  0  0  0  0999 V2000
   19.3412    1.8942   -8.2559 N   0  0  0  0  0  0  0  0  0  0  0  0
   19.8118    1.2101   -8.9904 C   0  0  0  0  0  0  0  0  0  0  0  0
   20.4493    0.2792   -9.9542 C   0  0  0  0  0  0  0  0  0  0  0  0
   19.5923   -0.3126  -10.9297 C   0  0  0  0  0  0  0  0  0  0  0  0
   20.2051   -1.1533  -11.8262 C   0  0  0  0  0  0  0  0  0  0  0  0
   21.5022   -1.4744  -11.8765 C   0  0  0  0  0  0  0  0  0  0  0  0
   21.9798   -2.3808  -12.8628 N   0  0  0  0  0  0  0  0  0  0  0  0
   22.3805   -0.9149  -10.9278 C   0  0  0  0  0  0  0  0  0  0  0  0
   23.6220   -1.1454  -10.8385 O   0  0  0  0  0  0  0  0  0  0  0  0
   24.9168   -1.3267  -10.7887 C   0  0  0  0  0  0  0  0  0  0  0  0
   25.8770   -0.3288  -10.2372 C   0  0  1  0  0  0  0  0  0  0  0  0
   27.2460   -0.4254  -10.9090 C   0  0  0  0  0  0  0  0  0  0  0  0
   27.9044   -1.6603  -10.5414 N   0  0  0  0  0  0  0  0  0  0  0  0
   25.4985    1.0839  -10.0375 C   0  0  0  0  0  0  0  0  0  0  0  0
   26.3048    1.0084   -8.7066 C   0  0  0  0  0  0  0  0  0  0  0  0
   25.9954   -0.4715   -8.7164 C   0  0  0  0  0  0  0  0  0  0  0  0
   21.7360   -0.0297   -9.9918 C   0  0  0  0  0  0  0  0  0  0  0  0
  1  2  3  0
  2  3  1  0
  3  4  2  0
  4  5  1  0
  5  6  2  0
  6  7  1  0
  6  8  1  0
  8  9  1  0
 10  9  1  1
 11 10  1  6
 11 12  1  0
 12 13  1  1
 14 11  1  1
 15 14  1  6
 16 15  1  6
  8 17  2  0
 17  3  1  0
 16 11  1  0
M  END
$$$$
