_rank17
     RDKit          3D

 17 18  0  0  0  0  0  0  0  0999 V2000
   26.5628    0.9166  -11.8828 C   0  0  0  0  0  0  0  0  0  0  0  0
   25.2877    0.4001  -12.2572 N   0  0  0  0  0  0  0  0  0  0  0  0
   25.1099   -0.9922  -11.9199 C   0  0  2  0  0  0  0  0  0  0  0  0
   25.4086   -1.9189  -13.0721 C   0  0  0  0  0  0  0  0  0  0  0  0
   24.2102   -1.6083  -13.9737 C   0  0  0  0  0  0  0  0  0  0  0  0
   23.0708   -1.7627  -12.9925 C   0  0  0  0  0  0  0  0  0  0  0  0
   23.6531   -1.3185  -11.6387 C   0  0  2  0  0  0  0  0  0  0  0  0
   22.9493   -0.2792  -11.0933 O   0  0  0  0  0  0  0  0  0  0  0  0
   21.7428   -0.3777  -10.4642 C   0  0  0  0  0  0  0  0  0  0  0  0
   21.2648   -1.4785   -9.7891 C   0  0  0  0  0  0  0  0  0  0  0  0
   20.0233   -1.5280   -9.1625 C   0  0  0  0  0  0  0  0  0  0  0  0
   19.6675   -2.6857   -8.5244 F   0  0  0  0  0  0  0  0  0  0  0  0
   19.2188   -0.4341   -9.2082 C   0  0  0  0  0  0  0  0  0  0  0  0
   19.6342    0.6997   -9.8659 C   0  0  0  0  0  0  0  0  0  0  0  0
   18.7413    1.8143   -9.8765 C   0  0  0  0  0  0  0  0  0  0  0  0
   18.0279    2.7351   -9.8778 N   0  0  0  0  0  0  0  0  0  0  0  0
   20.8589    0.7258  -10.4748 C   0  0  0  0  0  0  0  0  0  0  0  0
  1  2  1  6
  3  2  1  6
  3  4  1  0
  4  5  1  1
  5  6  1  1
  6  7  1  1
  7  8  1  6
  8  9  1  0
  9 10  2  0
 10 11  1  0
 11 12  1  0
 11 13  2  0
 13 14  1  0
 14 15  1  0
 15 16  3  0
 14 17  2  0
  7  3  1  0
 17  9  1  0
M  END
$$$$
