_rank12
     RDKit          3D

 17 18  0  0  0  0  0  0  0  0999 V2000
   21.9137   -0.9252  -13.7371 C   0  0  0  0  0  0  0  0  0  0  0  0
   21.5213   -0.3981  -12.4717 N   0  0  0  0  0  0  0  0  0  0  0  0
   21.3587   -1.4084  -11.4536 C   0  0  2  0  0  0  0  0  0  0  0  0
   20.0035   -1.3638  -10.7925 C   0  0  0  0  0  0  0  0  0  0  0  0
   20.1457   -0.0643   -9.9944 C   0  0  0  0  0  0  0  0  0  0  0  0
   21.4610   -0.3074   -9.2903 C   0  0  0  0  0  0  0  0  0  0  0  0
   22.2807   -1.1651  -10.2710 C   0  0  2  0  0  0  0  0  0  0  0  0
   23.4657   -0.5688  -10.6077 O   0  0  0  0  0  0  0  0  0  0  0  0
   24.6722   -0.8046  -10.0161 C   0  0  0  0  0  0  0  0  0  0  0  0
   25.1539   -2.0292   -9.6105 C   0  0  0  0  0  0  0  0  0  0  0  0
   26.3952   -2.2165   -9.0101 C   0  0  0  0  0  0  0  0  0  0  0  0
   26.7549   -3.4884   -8.6536 F   0  0  0  0  0  0  0  0  0  0  0  0
   27.1955   -1.1384   -8.8026 C   0  0  0  0  0  0  0  0  0  0  0  0
   26.7762    0.1144   -9.1836 C   0  0  0  0  0  0  0  0  0  0  0  0
   27.6650    1.2050   -8.9373 C   0  0  0  0  0  0  0  0  0  0  0  0
   28.3898    2.0986   -8.7563 N   0  0  0  0  0  0  0  0  0  0  0  0
   25.5519    0.2751   -9.7722 C   0  0  0  0  0  0  0  0  0  0  0  0
  1  2  1  6
  3  2  1  6
  3  4  1  0
  4  5  1  1
  5  6  1  1
  6  7  1  1
  7  8  1  6
  8  9  1  0
  9 10  2  0
 10 11  1  0
 11 12  1  0
 11 13  2  0
 13 14  1  0
 14 15  1  0
 15 16  3  0
 14 17  2  0
  7  3  1  0
 17  9  1  0
M  END
$$$$
