_rank7
     RDKit          3D

 17 18  0  0  0  0  0  0  0  0999 V2000
   19.1242    0.0585   -9.2465 C   0  0  0  0  0  0  0  0  0  0  0  0
   20.4675   -0.3283   -9.5271 N   0  0  0  0  0  0  0  0  0  0  0  0
   20.7775   -0.3479  -10.9369 C   0  0  2  0  0  0  0  0  0  0  0  0
   19.9716   -1.3684  -11.7016 C   0  0  0  0  0  0  0  0  0  0  0  0
   20.6108   -2.6554  -11.1718 C   0  0  0  0  0  0  0  0  0  0  0  0
   22.0762   -2.3517  -11.3849 C   0  0  0  0  0  0  0  0  0  0  0  0
   22.1956   -0.8293  -11.1916 C   0  0  2  0  0  0  0  0  0  0  0  0
   23.0764   -0.5058  -10.1953 O   0  0  0  0  0  0  0  0  0  0  0  0
   24.4336   -0.4456  -10.3207 C   0  0  0  0  0  0  0  0  0  0  0  0
   25.1491   -0.5770  -11.4898 C   0  0  0  0  0  0  0  0  0  0  0  0
   26.5370   -0.5074  -11.5641 C   0  0  0  0  0  0  0  0  0  0  0  0
   27.1263   -0.6548  -12.7910 F   0  0  0  0  0  0  0  0  0  0  0  0
   27.2475   -0.2976  -10.4253 C   0  0  0  0  0  0  0  0  0  0  0  0
   26.5959   -0.1575   -9.2226 C   0  0  0  0  0  0  0  0  0  0  0  0
   27.4013    0.0609   -8.0635 C   0  0  0  0  0  0  0  0  0  0  0  0
   28.0636    0.2194   -7.1186 N   0  0  0  0  0  0  0  0  0  0  0  0
   25.2308   -0.2294   -9.1732 C   0  0  0  0  0  0  0  0  0  0  0  0
  1  2  1  6
  3  2  1  1
  3  4  1  0
  4  5  1  1
  5  6  1  1
  6  7  1  1
  7  8  1  1
  8  9  1  0
  9 10  2  0
 10 11  1  0
 11 12  1  0
 11 13  2  0
 13 14  1  0
 14 15  1  0
 15 16  3  0
 14 17  2  0
  7  3  1  0
 17  9  1  0
M  END
$$$$
