_rank20
     RDKit          3D

 17 18  0  0  0  0  0  0  0  0999 V2000
   26.8304   -0.0439  -11.8650 C   0  0  0  0  0  0  0  0  0  0  0  0
   25.5363    0.0718  -12.4522 N   0  0  0  0  0  0  0  0  0  0  0  0
   24.8312   -1.1847  -12.5414 C   0  0  2  0  0  0  0  0  0  0  0  0
   24.4108   -1.5240  -13.9498 C   0  0  0  0  0  0  0  0  0  0  0  0
   23.3122   -0.4764  -14.1533 C   0  0  0  0  0  0  0  0  0  0  0  0
   22.4806   -0.6937  -12.9100 C   0  0  0  0  0  0  0  0  0  0  0  0
   23.4898   -1.1255  -11.8309 C   0  0  2  0  0  0  0  0  0  0  0  0
   23.4740   -0.2879  -10.7488 O   0  0  0  0  0  0  0  0  0  0  0  0
   22.4963   -0.2322   -9.7989 C   0  0  0  0  0  0  0  0  0  0  0  0
   21.1498   -0.0561  -10.0268 C   0  0  0  0  0  0  0  0  0  0  0  0
   20.1906   -0.0063   -9.0198 C   0  0  0  0  0  0  0  0  0  0  0  0
   18.8827    0.1739   -9.3819 F   0  0  0  0  0  0  0  0  0  0  0  0
   20.5863   -0.1375   -7.7267 C   0  0  0  0  0  0  0  0  0  0  0  0
   21.9164   -0.3163   -7.4280 C   0  0  0  0  0  0  0  0  0  0  0  0
   22.2656   -0.4475   -6.0493 C   0  0  0  0  0  0  0  0  0  0  0  0
   22.5307   -0.5565   -4.9203 N   0  0  0  0  0  0  0  0  0  0  0  0
   22.8421   -0.3620   -8.4341 C   0  0  0  0  0  0  0  0  0  0  0  0
  1  2  1  6
  3  2  1  6
  3  4  1  0
  4  5  1  1
  5  6  1  1
  6  7  1  1
  7  8  1  1
  8  9  1  0
  9 10  2  0
 10 11  1  0
 11 12  1  0
 11 13  2  0
 13 14  1  0
 14 15  1  0
 15 16  3  0
 14 17  2  0
  7  3  1  0
 17  9  1  0
M  END
$$$$
