_rank3
     RDKit          3D

 17 18  0  0  0  0  0  0  0  0999 V2000
   26.7748    0.5810   -8.3909 C   0  0  0  0  0  0  0  0  0  0  0  0
   26.4184    0.7471   -9.7614 N   0  0  0  0  0  0  0  0  0  0  0  0
   26.2503   -0.5011  -10.4670 C   0  0  2  0  0  0  0  0  0  0  0  0
   27.1806   -0.6393  -11.6464 C   0  0  0  0  0  0  0  0  0  0  0  0
   26.5614    0.3965  -12.5894 C   0  0  0  0  0  0  0  0  0  0  0  0
   25.1102   -0.0251  -12.5588 C   0  0  0  0  0  0  0  0  0  0  0  0
   24.8918   -0.5843  -11.1415 C   0  0  2  0  0  0  0  0  0  0  0  0
   23.9012    0.0830  -10.4734 O   0  0  0  0  0  0  0  0  0  0  0  0
   22.5868   -0.2798  -10.4284 C   0  0  0  0  0  0  0  0  0  0  0  0
   22.0519   -1.4590  -10.8968 C   0  0  0  0  0  0  0  0  0  0  0  0
   20.7001   -1.7817  -10.8267 C   0  0  0  0  0  0  0  0  0  0  0  0
   20.2974   -2.9894  -11.3304 F   0  0  0  0  0  0  0  0  0  0  0  0
   19.8393   -0.8928  -10.2657 C   0  0  0  0  0  0  0  0  0  0  0  0
   20.3066    0.3046   -9.7775 C   0  0  0  0  0  0  0  0  0  0  0  0
   19.3497    1.1941   -9.2003 C   0  0  0  0  0  0  0  0  0  0  0  0
   18.5822    1.9350   -8.7328 N   0  0  0  0  0  0  0  0  0  0  0  0
   21.6396    0.6009   -9.8570 C   0  0  0  0  0  0  0  0  0  0  0  0
  1  2  1  6
  3  2  1  6
  3  4  1  0
  4  5  1  1
  5  6  1  1
  6  7  1  1
  7  8  1  1
  8  9  1  0
  9 10  2  0
 10 11  1  0
 11 12  1  0
 11 13  2  0
 13 14  1  0
 14 15  1  0
 15 16  3  0
 14 17  2  0
  7  3  1  0
 17  9  1  0
M  END
$$$$
