_rank2
     RDKit          3D

 24 26  0  0  0  0  0  0  0  0999 V2000
   25.3736   -0.0608  -12.9559 O   0  0  0  0  0  0  0  0  0  0  0  0
   26.1827    0.1309  -12.0169 N   0  0  0  0  0  4  0  0  0  0  0  0
   27.4512    0.5150  -12.3394 O   0  0  0  0  0  1  0  0  0  0  0  0
   25.8067   -0.0389  -10.6690 C   0  0  0  0  0  0  0  0  0  0  0  0
   24.4882   -0.3113  -10.3402 C   0  0  0  0  0  0  0  0  0  0  0  0
   23.5335   -0.4155  -11.3896 N   0  0  0  0  0  0  0  0  0  0  0  0
   22.2094   -0.7863  -11.0855 C   0  0  0  0  0  0  0  0  0  0  0  0
   21.8252   -2.1119  -11.0721 C   0  0  0  0  0  0  0  0  0  0  0  0
   20.5286   -2.5138  -10.7785 C   0  0  0  0  0  0  0  0  0  0  0  0
   19.6154   -1.5037  -10.4934 C   0  0  0  0  0  0  0  0  0  0  0  0
   17.9654   -1.9387  -10.1141 Cl  0  0  0  0  0  0  0  0  0  0  0  0
   19.9589   -0.1724  -10.4973 C   0  0  0  0  0  0  0  0  0  0  0  0
   18.9402    0.8883  -10.1890 C   0  0  1  0  0  0  0  0  0  0  0  0
   19.5586    2.0305   -9.7796 F   0  0  0  0  0  0  0  0  0  0  0  0
   18.2084    1.1722  -11.3413 F   0  0  0  0  0  0  0  0  0  0  0  0
   18.1088    0.3987   -9.2211 F   0  0  0  0  0  0  0  0  0  0  0  0
   21.2823    0.1833  -10.7997 C   0  0  0  0  0  0  0  0  0  0  0  0
   24.1578   -0.4444   -9.0090 C   0  0  0  0  0  0  0  0  0  0  0  0
   25.1254   -0.3082   -8.0353 C   0  0  0  0  0  0  0  0  0  0  0  0
   26.4354   -0.0388   -8.3399 C   0  0  0  0  0  0  0  0  0  0  0  0
   27.5805    0.1491   -7.6473 N   0  0  0  0  0  0  0  0  0  0  0  0
   28.5459    0.3823   -8.5010 O   0  0  0  0  0  0  0  0  0  0  0  0
   28.0901    0.3556   -9.7072 N   0  0  0  0  0  0  0  0  0  0  0  0
   26.7603    0.0939   -9.6755 C   0  0  0  0  0  0  0  0  0  0  0  0
  1  2  2  0
  2  3  1  0
  2  4  1  0
  4  5  2  0
  5  6  1  0
  6  7  1  0
  7  8  2  0
  8  9  1  0
  9 10  2  0
 10 11  1  0
 10 12  1  0
 12 13  1  0
 13 14  1  1
 13 15  1  0
 13 16  1  0
 12 17  2  0
  5 18  1  0
 18 19  2  0
 19 20  1  0
 20 21  2  0
 21 22  1  0
 22 23  1  0
 23 24  2  0
 24  4  1  0
 17  7  1  0
 24 20  1  0
M  CHG  2   2   1   3  -1
M  END
$$$$
