_rank14
     RDKit          3D

 24 26  0  0  0  0  0  0  0  0999 V2000
   25.1429    0.0773  -12.9229 O   0  0  0  0  0  0  0  0  0  0  0  0
   26.0098   -0.2802  -12.0900 N   0  0  0  0  0  4  0  0  0  0  0  0
   27.2445   -0.6165  -12.5625 O   0  0  0  0  0  1  0  0  0  0  0  0
   25.7322   -0.3348  -10.7091 C   0  0  0  0  0  0  0  0  0  0  0  0
   24.6152   -1.0128  -10.2471 C   0  0  0  0  0  0  0  0  0  0  0  0
   23.7650   -1.6475  -11.1947 N   0  0  0  0  0  0  0  0  0  0  0  0
   22.3796   -1.3976  -11.1572 C   0  0  0  0  0  0  0  0  0  0  0  0
   21.4968   -2.1619  -11.8930 C   0  0  0  0  0  0  0  0  0  0  0  0
   20.1254   -1.9430  -11.8814 C   0  0  0  0  0  0  0  0  0  0  0  0
   19.6703   -0.8997  -11.0815 C   0  0  0  0  0  0  0  0  0  0  0  0
   17.9549   -0.5691  -11.0191 Cl  0  0  0  0  0  0  0  0  0  0  0  0
   20.5175   -0.1156  -10.3347 C   0  0  0  0  0  0  0  0  0  0  0  0
   19.9853    1.0056   -9.4874 C   0  0  1  0  0  0  0  0  0  0  0  0
   19.7577    2.1081  -10.2539 F   0  0  0  0  0  0  0  0  0  0  0  0
   18.7783    0.6133   -8.9103 F   0  0  0  0  0  0  0  0  0  0  0  0
   20.9051    1.2614   -8.5094 F   0  0  0  0  0  0  0  0  0  0  0  0
   21.8956   -0.3768  -10.3794 C   0  0  0  0  0  0  0  0  0  0  0  0
   24.3658   -1.0201   -8.8918 C   0  0  0  0  0  0  0  0  0  0  0  0
   25.2155   -0.3648   -8.0248 C   0  0  0  0  0  0  0  0  0  0  0  0
   26.3259    0.3115   -8.4619 C   0  0  0  0  0  0  0  0  0  0  0  0
   27.3190    1.0296   -7.8926 N   0  0  0  0  0  0  0  0  0  0  0  0
   28.1211    1.4480   -8.8396 O   0  0  0  0  0  0  0  0  0  0  0  0
   27.7031    1.0408   -9.9897 N   0  0  0  0  0  0  0  0  0  0  0  0
   26.5703    0.3156   -9.8210 C   0  0  0  0  0  0  0  0  0  0  0  0
  1  2  2  0
  2  3  1  0
  2  4  1  0
  4  5  2  0
  5  6  1  0
  6  7  1  0
  7  8  2  0
  8  9  1  0
  9 10  2  0
 10 11  1  0
 10 12  1  0
 12 13  1  0
 13 14  1  6
 13 15  1  0
 13 16  1  0
 12 17  2  0
  5 18  1  0
 18 19  2  0
 19 20  1  0
 20 21  2  0
 21 22  1  0
 22 23  1  0
 23 24  2  0
 24  4  1  0
 17  7  1  0
 24 20  1  0
M  CHG  2   2   1   3  -1
M  END
$$$$
