_rank11
     RDKit          3D

 24 26  0  0  0  0  0  0  0  0999 V2000
   25.7006   -0.1809  -12.9334 O   0  0  0  0  0  0  0  0  0  0  0  0
   26.4596   -0.0288  -11.9466 N   0  0  0  0  0  4  0  0  0  0  0  0
   27.7885    0.1597  -12.1900 O   0  0  0  0  0  1  0  0  0  0  0  0
   25.9692   -0.0473  -10.6252 C   0  0  0  0  0  0  0  0  0  0  0  0
   24.6197   -0.2499  -10.3833 C   0  0  0  0  0  0  0  0  0  0  0  0
   23.7509   -0.4384  -11.4938 N   0  0  0  0  0  0  0  0  0  0  0  0
   22.4086   -0.7999  -11.2681 C   0  0  0  0  0  0  0  0  0  0  0  0
   21.8756   -1.9457  -11.8230 C   0  0  0  0  0  0  0  0  0  0  0  0
   20.5566   -2.3320  -11.6232 C   0  0  0  0  0  0  0  0  0  0  0  0
   19.7799   -1.4982  -10.8250 C   0  0  0  0  0  0  0  0  0  0  0  0
   18.1105   -1.9249  -10.5311 Cl  0  0  0  0  0  0  0  0  0  0  0  0
   20.2737   -0.3485  -10.2553 C   0  0  0  0  0  0  0  0  0  0  0  0
   19.3992    0.5278   -9.4035 C   0  0  1  0  0  0  0  0  0  0  0  0
   18.5359   -0.2335   -8.6757 F   0  0  0  0  0  0  0  0  0  0  0  0
   20.1968    1.2552   -8.5211 F   0  0  0  0  0  0  0  0  0  0  0  0
   18.7298    1.3818  -10.2345 F   0  0  0  0  0  0  0  0  0  0  0  0
   21.6136   -0.0011  -10.4864 C   0  0  0  0  0  0  0  0  0  0  0  0
   24.1773   -0.2349   -9.0783 C   0  0  0  0  0  0  0  0  0  0  0  0
   25.0662   -0.0228   -8.0450 C   0  0  0  0  0  0  0  0  0  0  0  0
   26.4052    0.1796   -8.2633 C   0  0  0  0  0  0  0  0  0  0  0  0
   27.4956    0.4092   -7.4989 N   0  0  0  0  0  0  0  0  0  0  0  0
   28.5350    0.5272   -8.2869 O   0  0  0  0  0  0  0  0  0  0  0  0
   28.1785    0.3866   -9.5184 N   0  0  0  0  0  0  0  0  0  0  0  0
   26.8425    0.1638   -9.5731 C   0  0  0  0  0  0  0  0  0  0  0  0
  1  2  2  0
  2  3  1  0
  2  4  1  0
  4  5  2  0
  5  6  1  0
  6  7  1  0
  7  8  2  0
  8  9  1  0
  9 10  2  0
 10 11  1  0
 10 12  1  0
 12 13  1  0
 13 14  1  1
 13 15  1  0
 13 16  1  0
 12 17  2  0
  5 18  1  0
 18 19  2  0
 19 20  1  0
 20 21  2  0
 21 22  1  0
 22 23  1  0
 23 24  2  0
 24  4  1  0
 17  7  1  0
 24 20  1  0
M  CHG  2   2   1   3  -1
M  END
$$$$
