_rank1
     RDKit          3D

 24 26  0  0  0  0  0  0  0  0999 V2000
   27.0612   -0.3986  -12.5766 O   0  0  0  0  0  0  0  0  0  0  0  0
   26.2010    0.3440  -12.0458 N   0  0  0  0  0  4  0  0  0  0  0  0
   25.6570    1.3337  -12.8107 O   0  0  0  0  0  1  0  0  0  0  0  0
   25.7989    0.1714  -10.7058 C   0  0  0  0  0  0  0  0  0  0  0  0
   24.4760   -0.1102  -10.4039 C   0  0  0  0  0  0  0  0  0  0  0  0
   23.5435   -0.2210  -11.4725 N   0  0  0  0  0  0  0  0  0  0  0  0
   22.2121   -0.5851  -11.1934 C   0  0  0  0  0  0  0  0  0  0  0  0
   21.7774   -1.8840  -11.3631 C   0  0  0  0  0  0  0  0  0  0  0  0
   20.4720   -2.2783  -11.0995 C   0  0  0  0  0  0  0  0  0  0  0  0
   19.6039   -1.2888  -10.6491 C   0  0  0  0  0  0  0  0  0  0  0  0
   17.9458   -1.7158  -10.2970 Cl  0  0  0  0  0  0  0  0  0  0  0  0
   19.9984    0.0158  -10.4682 C   0  0  0  0  0  0  0  0  0  0  0  0
   19.0272    1.0557   -9.9848 C   0  0  1  0  0  0  0  0  0  0  0  0
   18.2765    1.5177  -11.0229 F   0  0  0  0  0  0  0  0  0  0  0  0
   18.1726    0.4847   -9.0428 F   0  0  0  0  0  0  0  0  0  0  0  0
   19.7484    2.0622   -9.4062 F   0  0  0  0  0  0  0  0  0  0  0  0
   21.3286    0.3647  -10.7478 C   0  0  0  0  0  0  0  0  0  0  0  0
   24.1195   -0.2457   -9.0797 C   0  0  0  0  0  0  0  0  0  0  0  0
   25.0661   -0.1028   -8.0865 C   0  0  0  0  0  0  0  0  0  0  0  0
   26.3802    0.1758   -8.3645 C   0  0  0  0  0  0  0  0  0  0  0  0
   27.5096    0.3716   -7.6487 N   0  0  0  0  0  0  0  0  0  0  0  0
   28.4904    0.6117   -8.4827 O   0  0  0  0  0  0  0  0  0  0  0  0
   28.0594    0.5820   -9.6978 N   0  0  0  0  0  0  0  0  0  0  0  0
   26.7312    0.3109   -9.6931 C   0  0  0  0  0  0  0  0  0  0  0  0
  1  2  2  0
  2  3  1  0
  2  4  1  0
  4  5  2  0
  5  6  1  0
  6  7  1  0
  7  8  2  0
  8  9  1  0
  9 10  2  0
 10 11  1  0
 10 12  1  0
 12 13  1  0
 13 14  1  6
 13 15  1  0
 13 16  1  0
 12 17  2  0
  5 18  1  0
 18 19  2  0
 19 20  1  0
 20 21  2  0
 21 22  1  0
 22 23  1  0
 23 24  2  0
 24  4  1  0
 17  7  1  0
 24 20  1  0
M  CHG  2   2   1   3  -1
M  END
$$$$
