_rank8
     RDKit          3D

 24 26  0  0  0  0  0  0  0  0999 V2000
   27.4476    0.6995  -12.2648 O   0  0  0  0  0  0  0  0  0  0  0  0
   26.3810    0.1029  -11.9828 N   0  0  0  0  0  4  0  0  0  0  0  0
   25.6684   -0.4443  -13.0091 O   0  0  0  0  0  1  0  0  0  0  0  0
   25.9233   -0.0079  -10.6541 C   0  0  0  0  0  0  0  0  0  0  0  0
   24.5806   -0.2313  -10.3937 C   0  0  0  0  0  0  0  0  0  0  0  0
   23.6849   -0.3461  -11.4930 N   0  0  0  0  0  0  0  0  0  0  0  0
   22.3463   -0.7151  -11.2585 C   0  0  0  0  0  0  0  0  0  0  0  0
   21.8813   -1.9685  -11.6014 C   0  0  0  0  0  0  0  0  0  0  0  0
   20.5680   -2.3658  -11.3866 C   0  0  0  0  0  0  0  0  0  0  0  0
   19.7241   -1.4280  -10.8001 C   0  0  0  0  0  0  0  0  0  0  0  0
   18.0576   -1.8619  -10.4999 Cl  0  0  0  0  0  0  0  0  0  0  0  0
   20.1490   -0.1696  -10.4450 C   0  0  0  0  0  0  0  0  0  0  0  0
   19.2033    0.8160   -9.8184 C   0  0  1  0  0  0  0  0  0  0  0  0
   19.5912    2.0893  -10.1062 F   0  0  0  0  0  0  0  0  0  0  0  0
   17.9235    0.6179  -10.3348 F   0  0  0  0  0  0  0  0  0  0  0  0
   19.1991    0.5902   -8.4705 F   0  0  0  0  0  0  0  0  0  0  0  0
   21.4861    0.1844  -10.6821 C   0  0  0  0  0  0  0  0  0  0  0  0
   24.1705   -0.3073   -9.0804 C   0  0  0  0  0  0  0  0  0  0  0  0
   25.0843   -0.1635   -8.0570 C   0  0  0  0  0  0  0  0  0  0  0  0
   26.4172    0.0580   -8.2937 C   0  0  0  0  0  0  0  0  0  0  0  0
   27.5257    0.2383   -7.5422 N   0  0  0  0  0  0  0  0  0  0  0  0
   28.5451    0.4137   -8.3456 O   0  0  0  0  0  0  0  0  0  0  0  0
   28.1586    0.3567   -9.5746 N   0  0  0  0  0  0  0  0  0  0  0  0
   26.8220    0.1336   -9.6117 C   0  0  0  0  0  0  0  0  0  0  0  0
  1  2  2  0
  2  3  1  0
  2  4  1  0
  4  5  2  0
  5  6  1  0
  6  7  1  0
  7  8  2  0
  8  9  1  0
  9 10  2  0
 10 11  1  0
 10 12  1  0
 12 13  1  0
 13 14  1  1
 13 15  1  0
 13 16  1  0
 12 17  2  0
  5 18  1  0
 18 19  2  0
 19 20  1  0
 20 21  2  0
 21 22  1  0
 22 23  1  0
 23 24  2  0
 24  4  1  0
 17  7  1  0
 24 20  1  0
M  CHG  2   2   1   3  -1
M  END
$$$$
