_rank14
     RDKit          3D

 19 21  0  0  0  0  0  0  0  0999 V2000
   28.7810   -1.0846   -9.4975 C   0  0  0  0  0  0  0  0  0  0  0  0
   27.2738   -1.0605   -8.6054 S   0  0  2  0  0  6  0  0  0  0  0  0
   27.5061   -0.4050   -7.2747 O   0  0  0  0  0  0  0  0  0  0  0  0
   26.8647   -2.4792   -8.3289 O   0  0  0  0  0  0  0  0  0  0  0  0
   25.9716   -0.2295   -9.4496 C   0  0  1  0  0  0  0  0  0  0  0  0
   26.3699    1.1954   -9.7621 C   0  0  0  0  0  0  0  0  0  0  0  0
   25.0803    1.9119  -10.1833 C   0  0  0  0  0  0  0  0  0  0  0  0
   24.6598    1.2754  -11.4931 C   0  0  0  0  0  0  0  0  0  0  0  0
   24.2936   -0.1547  -11.2055 C   0  0  2  0  0  0  0  0  0  0  0  0
   25.4845   -0.9393  -10.6626 C   0  0  0  0  0  0  0  0  0  0  0  0
   23.6476   -0.8188  -12.2853 N   0  0  0  0  0  0  0  0  0  0  0  0
   22.4110   -1.3125  -11.7840 C   0  0  0  0  0  0  0  0  0  0  0  0
   21.3986   -2.0969  -12.3209 C   0  0  0  0  0  0  0  0  0  0  0  0
   20.2804   -2.4324  -11.5907 C   0  0  0  0  0  0  0  0  0  0  0  0
   20.1160   -2.0046  -10.2945 C   0  0  0  0  0  0  0  0  0  0  0  0
   19.0024   -2.3510   -9.5979 F   0  0  0  0  0  0  0  0  0  0  0  0
   21.1208   -1.2236   -9.7554 C   0  0  0  0  0  0  0  0  0  0  0  0
   22.2366   -0.8865  -10.4780 C   0  0  0  0  0  0  0  0  0  0  0  0
   23.3422   -0.1254  -10.1297 O   0  0  0  0  0  0  0  0  0  0  0  0
  2  1  1  6
  2  3  2  0
  2  4  2  0
  5  2  1  6
  6  5  1  1
  7  6  1  6
  8  7  1  1
  8  9  1  0
 10  9  1  1
  9 11  1  6
 11 12  1  0
 12 13  2  0
 13 14  1  0
 14 15  2  0
 15 16  1  0
 15 17  1  0
 17 18  2  0
 18 19  1  0
 10  5  1  0
 18 12  1  0
  9 19  1  0
M  END
$$$$
