_rank2
     RDKit          3D

 19 21  0  0  0  0  0  0  0  0999 V2000
   27.0836   -1.7463   -7.8682 C   0  0  0  0  0  0  0  0  0  0  0  0
   27.2386   -0.1650   -8.6057 S   0  0  2  0  0  6  0  0  0  0  0  0
   28.6488    0.0099   -9.0907 O   0  0  0  0  0  0  0  0  0  0  0  0
   27.0077    0.8755   -7.5472 O   0  0  0  0  0  0  0  0  0  0  0  0
   26.1218    0.0995   -9.9405 C   0  0  1  0  0  0  0  0  0  0  0  0
   26.8740    0.5220  -11.1823 C   0  0  0  0  0  0  0  0  0  0  0  0
   25.8136    1.0390  -12.1632 C   0  0  0  0  0  0  0  0  0  0  0  0
   24.9769   -0.1661  -12.5443 C   0  0  0  0  0  0  0  0  0  0  0  0
   24.2483   -0.6212  -11.3099 C   0  0  2  0  0  0  0  0  0  0  0  0
   25.2187   -1.0505  -10.2133 C   0  0  0  0  0  0  0  0  0  0  0  0
   23.2365   -1.5909  -11.5552 N   0  0  0  0  0  0  0  0  0  0  0  0
   22.0264   -1.0672  -11.0207 C   0  0  0  0  0  0  0  0  0  0  0  0
   20.7388   -1.5684  -10.8816 C   0  0  0  0  0  0  0  0  0  0  0  0
   19.7313   -0.8231  -10.3111 C   0  0  0  0  0  0  0  0  0  0  0  0
   19.9557    0.4536   -9.8528 C   0  0  0  0  0  0  0  0  0  0  0  0
   18.9427    1.1657   -9.2943 F   0  0  0  0  0  0  0  0  0  0  0  0
   21.2356    0.9571   -9.9890 C   0  0  0  0  0  0  0  0  0  0  0  0
   22.2428    0.2192  -10.5563 C   0  0  0  0  0  0  0  0  0  0  0  0
   23.5744    0.5329  -10.7833 O   0  0  0  0  0  0  0  0  0  0  0  0
  2  1  1  1
  2  3  2  0
  2  4  2  0
  5  2  1  1
  6  5  1  1
  7  6  1  6
  8  7  1  1
  8  9  1  0
 10  9  1  1
  9 11  1  6
 11 12  1  0
 12 13  2  0
 13 14  1  0
 14 15  2  0
 15 16  1  0
 15 17  1  0
 17 18  2  0
 18 19  1  0
 10  5  1  0
 18 12  1  0
  9 19  1  0
M  END
$$$$
