_rank5
     RDKit          3D

 19 21  0  0  0  0  0  0  0  0999 V2000
   28.6795    0.0588   -9.0729 C   0  0  0  0  0  0  0  0  0  0  0  0
   26.9964    0.0039   -8.5909 S   0  0  2  0  0  6  0  0  0  0  0  0
   26.7392    1.0983   -7.5955 O   0  0  0  0  0  0  0  0  0  0  0  0
   26.7489   -1.2980   -7.8837 O   0  0  0  0  0  0  0  0  0  0  0  0
   25.8747    0.1608   -9.9385 C   0  0  1  0  0  0  0  0  0  0  0  0
   26.6231    0.4754  -11.2143 C   0  0  0  0  0  0  0  0  0  0  0  0
   25.5603    0.9132  -12.2305 C   0  0  0  0  0  0  0  0  0  0  0  0
   24.7176   -0.3161  -12.5066 C   0  0  0  0  0  0  0  0  0  0  0  0
   23.9928   -0.6640  -11.2356 C   0  0  2  0  0  0  0  0  0  0  0  0
   24.9664   -1.0044  -10.1110 C   0  0  0  0  0  0  0  0  0  0  0  0
   22.9764   -1.6467  -11.3953 N   0  0  0  0  0  0  0  0  0  0  0  0
   21.7705   -1.0756  -10.9014 C   0  0  0  0  0  0  0  0  0  0  0  0
   20.4818   -1.5583  -10.7158 C   0  0  0  0  0  0  0  0  0  0  0  0
   19.4794   -0.7641  -10.2053 C   0  0  0  0  0  0  0  0  0  0  0  0
   19.7105    0.5454   -9.8558 C   0  0  0  0  0  0  0  0  0  0  0  0
   18.7025    1.3056   -9.3545 F   0  0  0  0  0  0  0  0  0  0  0  0
   20.9916    1.0307  -10.0386 C   0  0  0  0  0  0  0  0  0  0  0  0
   21.9936    0.2442  -10.5466 C   0  0  0  0  0  0  0  0  0  0  0  0
   23.3254    0.5326  -10.8043 O   0  0  0  0  0  0  0  0  0  0  0  0
  2  1  1  6
  2  3  2  0
  2  4  2  0
  5  2  1  1
  6  5  1  1
  7  6  1  6
  8  7  1  1
  8  9  1  0
 10  9  1  1
  9 11  1  6
 11 12  1  0
 12 13  2  0
 13 14  1  0
 14 15  2  0
 15 16  1  0
 15 17  1  0
 17 18  2  0
 18 19  1  0
 10  5  1  0
 18 12  1  0
  9 19  1  0
M  END
$$$$
