_rank12
     RDKit          3D

 19 21  0  0  0  0  0  0  0  0999 V2000
   26.7027    1.7624   -7.6672 C   0  0  0  0  0  0  0  0  0  0  0  0
   26.7428    0.2270   -8.5094 S   0  0  2  0  0  6  0  0  0  0  0  0
   26.5116   -0.8777   -7.5191 O   0  0  0  0  0  0  0  0  0  0  0  0
   28.1225    0.0306   -9.0699 O   0  0  0  0  0  0  0  0  0  0  0  0
   25.5607    0.1078   -9.8083 C   0  0  1  0  0  0  0  0  0  0  0  0
   26.2555   -0.0639  -11.1404 C   0  0  0  0  0  0  0  0  0  0  0  0
   25.1823    0.1747  -12.2105 C   0  0  0  0  0  0  0  0  0  0  0  0
   24.1991   -0.9712  -12.0762 C   0  0  0  0  0  0  0  0  0  0  0  0
   23.5238   -0.8351  -10.7393 C   0  0  2  0  0  0  0  0  0  0  0  0
   24.5256   -0.9385   -9.5929 C   0  0  0  0  0  0  0  0  0  0  0  0
   22.4016   -1.6919  -10.5639 N   0  0  0  0  0  0  0  0  0  0  0  0
   21.2963   -0.8597  -10.2322 C   0  0  0  0  0  0  0  0  0  0  0  0
   19.9783   -1.1076   -9.8719 C   0  0  0  0  0  0  0  0  0  0  0  0
   19.0996   -0.0835   -9.5979 C   0  0  0  0  0  0  0  0  0  0  0  0
   19.4888    1.2332   -9.6690 C   0  0  0  0  0  0  0  0  0  0  0  0
   18.6003    2.2230   -9.3932 F   0  0  0  0  0  0  0  0  0  0  0  0
   20.7997    1.4853  -10.0272 C   0  0  0  0  0  0  0  0  0  0  0  0
   21.6791    0.4693  -10.3012 C   0  0  0  0  0  0  0  0  0  0  0  0
   23.0148    0.5064  -10.6724 O   0  0  0  0  0  0  0  0  0  0  0  0
  2  1  1  1
  2  3  2  0
  2  4  2  0
  5  2  1  1
  6  5  1  1
  7  6  1  6
  8  7  1  1
  8  9  1  0
 10  9  1  1
  9 11  1  1
 11 12  1  0
 12 13  2  0
 13 14  1  0
 14 15  2  0
 15 16  1  0
 15 17  1  0
 17 18  2  0
 18 19  1  0
 10  5  1  0
 18 12  1  0
  9 19  1  0
M  END
$$$$
