_rank2
     RDKit          3D

 18 19  0  0  0  0  0  0  0  0999 V2000
   27.9068   -0.4937   -7.7688 C   0  0  0  0  0  0  0  0  0  0  0  0
   26.6533    0.0265   -8.3404 N   0  0  0  0  0  0  0  0  0  0  0  0
   26.5729   -0.5266   -9.6784 C   0  0  2  0  0  0  0  0  0  0  0  0
   27.2309    0.4481  -10.6112 C   0  0  0  0  0  0  0  0  0  0  0  0
   26.7255    0.0916  -12.0112 C   0  0  0  0  0  0  0  0  0  0  0  0
   25.2958    0.6145  -12.0544 C   0  0  0  0  0  0  0  0  0  0  0  0
   24.4648    0.0327  -10.9393 C   0  0  1  0  0  0  0  0  0  0  0  0
   23.4068   -0.6578  -11.5403 O   0  0  0  0  0  0  0  0  0  0  0  0
   22.1069   -0.7437  -11.1720 C   0  0  0  0  0  0  0  0  0  0  0  0
   21.4088   -1.9330  -11.4210 C   0  0  0  0  0  0  0  0  0  0  0  0
   20.0930   -2.0753  -11.0699 C   0  0  0  0  0  0  0  0  0  0  0  0
   19.3927   -3.2117  -11.2979 F   0  0  0  0  0  0  0  0  0  0  0  0
   19.4326   -1.0207  -10.4537 C   0  0  0  0  0  0  0  0  0  0  0  0
   20.0829    0.1553  -10.1951 C   0  0  0  0  0  0  0  0  0  0  0  0
   19.3699    1.2330   -9.5540 C   0  0  0  0  0  0  0  0  0  0  0  0
   18.8087    2.1143   -9.0253 N   0  0  0  0  0  0  0  0  0  0  0  0
   21.4118    0.2646  -10.5631 C   0  0  0  0  0  0  0  0  0  0  0  0
   25.2199   -0.9454  -10.0860 C   0  0  0  0  0  0  0  0  0  0  0  0
  1  2  1  1
  3  2  1  1
  3  4  1  0
  4  5  1  6
  5  6  1  6
  6  7  1  1
  7  8  1  6
  8  9  1  0
  9 10  2  0
 10 11  1  0
 11 12  1  0
 11 13  2  0
 13 14  1  0
 14 15  1  0
 15 16  3  0
 14 17  2  0
 18  7  1  6
 18  3  1  0
 17  9  1  0
M  END
$$$$
