_rank3
     RDKit          3D

 18 19  0  0  0  0  0  0  0  0999 V2000
   28.6779   -0.6742  -11.4014 C   0  0  0  0  0  0  0  0  0  0  0  0
   27.5403   -1.1919  -10.6227 N   0  0  0  0  0  0  0  0  0  0  0  0
   26.4729   -0.2262  -10.7978 C   0  0  2  0  0  0  0  0  0  0  0  0
   26.3094    0.5082   -9.4989 C   0  0  0  0  0  0  0  0  0  0  0  0
   24.9208    1.1492   -9.5542 C   0  0  0  0  0  0  0  0  0  0  0  0
   23.9505   -0.0023   -9.3261 C   0  0  0  0  0  0  0  0  0  0  0  0
   24.1558   -1.1013  -10.3373 C   0  0  1  0  0  0  0  0  0  0  0  0
   22.9491   -1.2445  -11.0307 O   0  0  0  0  0  0  0  0  0  0  0  0
   21.6787   -1.0328  -10.6135 C   0  0  0  0  0  0  0  0  0  0  0  0
   21.2565    0.2802  -10.3653 C   0  0  0  0  0  0  0  0  0  0  0  0
   19.9833    0.5526   -9.9417 C   0  0  0  0  0  0  0  0  0  0  0  0
   19.5471    1.8103   -9.6936 F   0  0  0  0  0  0  0  0  0  0  0  0
   19.0881   -0.4920   -9.7528 C   0  0  0  0  0  0  0  0  0  0  0  0
   19.4659   -1.7865   -9.9855 C   0  0  0  0  0  0  0  0  0  0  0  0
   18.5136   -2.8503   -9.7800 C   0  0  0  0  0  0  0  0  0  0  0  0
   17.7262   -3.7000   -9.6094 N   0  0  0  0  0  0  0  0  0  0  0  0
   20.7597   -2.0255  -10.4126 C   0  0  0  0  0  0  0  0  0  0  0  0
   25.2247   -0.7876  -11.3445 C   0  0  0  0  0  0  0  0  0  0  0  0
  1  2  1  1
  3  2  1  1
  3  4  1  0
  4  5  1  6
  5  6  1  6
  6  7  1  1
  7  8  1  6
  8  9  1  0
  9 10  2  0
 10 11  1  0
 11 12  1  0
 11 13  2  0
 13 14  1  0
 14 15  1  0
 15 16  3  0
 14 17  2  0
 18  7  1  6
 18  3  1  0
 17  9  1  0
M  END
$$$$
