_rank16
     RDKit          3D

 18 19  0  0  0  0  0  0  0  0999 V2000
   20.6221   -3.6956   -8.8363 C   0  0  0  0  0  0  0  0  0  0  0  0
   20.6871   -3.0325  -10.1496 N   0  0  0  0  0  0  0  0  0  0  0  0
   20.7355   -1.6107   -9.8694 C   0  0  2  0  0  0  0  0  0  0  0  0
   19.7617   -0.9346  -10.7902 C   0  0  0  0  0  0  0  0  0  0  0  0
   20.1668    0.5410  -10.8148 C   0  0  0  0  0  0  0  0  0  0  0  0
   21.4188    0.5873  -11.6806 C   0  0  0  0  0  0  0  0  0  0  0  0
   22.4891   -0.3303  -11.1469 C   0  0  1  0  0  0  0  0  0  0  0  0
   23.6004    0.4688  -10.8573 O   0  0  0  0  0  0  0  0  0  0  0  0
   24.8736    0.1115  -10.5671 C   0  0  0  0  0  0  0  0  0  0  0  0
   25.6997   -0.3524  -11.5997 C   0  0  0  0  0  0  0  0  0  0  0  0
   26.9952   -0.7274  -11.3635 C   0  0  0  0  0  0  0  0  0  0  0  0
   27.8167   -1.1795  -12.3405 F   0  0  0  0  0  0  0  0  0  0  0  0
   27.5052   -0.6477  -10.0745 C   0  0  0  0  0  0  0  0  0  0  0  0
   26.7272   -0.1994   -9.0419 C   0  0  0  0  0  0  0  0  0  0  0  0
   27.2852   -0.1282   -7.7135 C   0  0  0  0  0  0  0  0  0  0  0  0
   27.7567   -0.0735   -6.6431 N   0  0  0  0  0  0  0  0  0  0  0  0
   25.4230    0.1711   -9.3161 C   0  0  0  0  0  0  0  0  0  0  0  0
   22.0907   -1.0316   -9.8802 C   0  0  0  0  0  0  0  0  0  0  0  0
  1  2  1  1
  3  2  1  6
  3  4  1  0
  4  5  1  6
  5  6  1  6
  6  7  1  1
  7  8  1  1
  8  9  1  0
  9 10  2  0
 10 11  1  0
 11 12  1  0
 11 13  2  0
 13 14  1  0
 14 15  1  0
 15 16  3  0
 14 17  2  0
 18  7  1  6
 18  3  1  0
 17  9  1  0
M  END
$$$$
