_rank11
     RDKit          3D

 18 19  0  0  0  0  0  0  0  0999 V2000
   19.1658   -3.5846  -11.2653 C   0  0  0  0  0  0  0  0  0  0  0  0
   19.8502   -2.4010  -11.8124 N   0  0  0  0  0  0  0  0  0  0  0  0
   20.0417   -1.5043  -10.6892 C   0  0  2  0  0  0  0  0  0  0  0  0
   19.6737   -0.1224  -11.1455 C   0  0  0  0  0  0  0  0  0  0  0  0
   20.3186    0.8343  -10.1400 C   0  0  0  0  0  0  0  0  0  0  0  0
   21.8002    0.8298  -10.4926 C   0  0  0  0  0  0  0  0  0  0  0  0
   22.3683   -0.5661  -10.4574 C   0  0  1  0  0  0  0  0  0  0  0  0
   23.3905   -0.5635   -9.5021 O   0  0  0  0  0  0  0  0  0  0  0  0
   24.7337   -0.5871   -9.6693 C   0  0  0  0  0  0  0  0  0  0  0  0
   25.2578   -1.0500  -10.8837 C   0  0  0  0  0  0  0  0  0  0  0  0
   26.6079   -1.0958  -11.1074 C   0  0  0  0  0  0  0  0  0  0  0  0
   27.1433   -1.5382  -12.2699 F   0  0  0  0  0  0  0  0  0  0  0  0
   27.4798   -0.6753  -10.1119 C   0  0  0  0  0  0  0  0  0  0  0  0
   27.0033   -0.2172   -8.9137 C   0  0  0  0  0  0  0  0  0  0  0  0
   27.9340    0.2124   -7.8987 C   0  0  0  0  0  0  0  0  0  0  0  0
   28.6884    0.5801   -7.0821 N   0  0  0  0  0  0  0  0  0  0  0  0
   25.6338   -0.1845   -8.7216 C   0  0  0  0  0  0  0  0  0  0  0  0
   21.3641   -1.6043  -10.0463 C   0  0  0  0  0  0  0  0  0  0  0  0
  1  2  1  1
  3  2  1  6
  3  4  1  0
  4  5  1  6
  5  6  1  6
  6  7  1  1
  7  8  1  1
  8  9  1  0
  9 10  2  0
 10 11  1  0
 11 12  1  0
 11 13  2  0
 13 14  1  0
 14 15  1  0
 15 16  3  0
 14 17  2  0
 18  7  1  6
 18  3  1  0
 17  9  1  0
M  END
$$$$
