_rank8
     RDKit          3D

 24 26  0  0  0  0  0  0  0  0999 V2000
   28.5536    0.7763   -8.8048 C   0  0  0  0  0  0  0  0  0  0  0  0
   27.4653   -0.6195   -8.6243 S   0  0  1  0  0  6  0  0  0  0  0  0
   28.2563   -1.8170   -8.9995 O   0  0  0  0  0  0  0  0  0  0  0  0
   27.1050   -0.6837   -7.1456 O   0  0  0  0  0  0  0  0  0  0  0  0
   26.0189   -0.3729   -9.5069 C   0  0  0  0  0  0  0  0  0  0  0  0
   24.8067   -0.4106   -8.8476 C   0  0  0  0  0  0  0  0  0  0  0  0
   23.6073   -0.2134   -9.5352 C   0  0  0  0  0  0  0  0  0  0  0  0
   23.5905    0.0227  -10.8783 C   0  0  0  0  0  0  0  0  0  0  0  0
   22.4084    0.2206  -11.5763 O   0  0  0  0  0  0  0  0  0  0  0  0
   21.1545   -0.0904  -11.0527 C   0  0  0  0  0  0  0  0  0  0  0  0
   20.3473    0.8570  -10.4643 C   0  0  0  0  0  0  0  0  0  0  0  0
   19.1227    0.4848   -9.9676 C   0  0  0  0  0  0  0  0  0  0  0  0
   18.3006    1.4036   -9.3774 F   0  0  0  0  0  0  0  0  0  0  0  0
   18.7052   -0.8115  -10.0543 C   0  0  0  0  0  0  0  0  0  0  0  0
   19.4895   -1.7640  -10.6330 C   0  0  0  0  0  0  0  0  0  0  0  0
   19.0331   -3.1352  -10.7163 C   0  0  0  0  0  0  0  0  0  0  0  0
   18.6567   -4.2359  -10.7782 N   0  0  0  0  0  0  0  0  0  0  0  0
   20.7158   -1.3989  -11.1320 C   0  0  0  0  0  0  0  0  0  0  0  0
   24.7838    0.0648  -11.5563 C   0  0  0  0  0  0  0  0  0  0  0  0
   25.9590   -0.1317  -10.8635 C   0  0  0  0  0  0  0  0  0  0  0  0
   27.0290   -0.0250  -11.8521 C   0  0  0  0  0  0  0  0  0  0  0  0
   28.1684   -0.4879  -11.6975 O   0  0  0  0  0  0  0  0  0  0  0  0
   26.4691    0.7281  -13.0283 C   0  0  0  0  0  0  0  0  0  0  0  0
   25.0422    0.2988  -12.9955 C   0  0  0  0  0  0  0  0  0  0  0  0
  1  2  1  6
  2  3  2  0
  2  4  2  0
  2  5  1  6
  5  6  2  0
  6  7  1  0
  7  8  2  0
  8  9  1  0
  9 10  1  0
 10 11  2  0
 11 12  1  0
 12 13  1  0
 12 14  2  0
 14 15  1  0
 15 16  1  0
 16 17  3  0
 15 18  2  0
  8 19  1  0
 19 20  2  0
 20 21  1  0
 21 22  2  0
 23 21  1  6
 23 24  1  0
 20  5  1  0
 18 10  1  0
 24 19  1  6
M  END
$$$$
