_rank14
     RDKit          3D

 24 26  0  0  0  0  0  0  0  0999 V2000
   27.1457   -0.5685   -6.7712 C   0  0  0  0  0  0  0  0  0  0  0  0
   27.5138   -0.2356   -8.4796 S   0  0  1  0  0  6  0  0  0  0  0  0
   28.2292    1.0636   -8.5073 O   0  0  0  0  0  0  0  0  0  0  0  0
   28.4505   -1.3482   -8.9328 O   0  0  0  0  0  0  0  0  0  0  0  0
   26.0924   -0.3261   -9.4301 C   0  0  0  0  0  0  0  0  0  0  0  0
   24.8628   -0.3988   -8.8071 C   0  0  0  0  0  0  0  0  0  0  0  0
   23.6829   -0.4734   -9.5505 C   0  0  0  0  0  0  0  0  0  0  0  0
   23.7030   -0.4771  -10.9140 C   0  0  0  0  0  0  0  0  0  0  0  0
   22.5407   -0.5507  -11.6673 O   0  0  0  0  0  0  0  0  0  0  0  0
   21.2828   -0.7648  -11.1062 C   0  0  0  0  0  0  0  0  0  0  0  0
   20.6693   -1.9972  -11.1240 C   0  0  0  0  0  0  0  0  0  0  0  0
   19.4288   -2.1410  -10.5536 C   0  0  0  0  0  0  0  0  0  0  0  0
   18.7954   -3.3523  -10.5573 F   0  0  0  0  0  0  0  0  0  0  0  0
   18.8057   -1.0748   -9.9731 C   0  0  0  0  0  0  0  0  0  0  0  0
   19.3962    0.1531   -9.9452 C   0  0  0  0  0  0  0  0  0  0  0  0
   18.7220    1.2749   -9.3267 C   0  0  0  0  0  0  0  0  0  0  0  0
   18.1848    2.1843   -8.8355 N   0  0  0  0  0  0  0  0  0  0  0  0
   20.6372    0.3044  -10.5139 C   0  0  0  0  0  0  0  0  0  0  0  0
   24.9143   -0.4056  -11.5568 C   0  0  0  0  0  0  0  0  0  0  0  0
   26.0698   -0.3325  -10.8091 C   0  0  0  0  0  0  0  0  0  0  0  0
   27.1661   -0.2669  -11.7721 C   0  0  0  0  0  0  0  0  0  0  0  0
   28.3432   -0.5516  -11.5076 O   0  0  0  0  0  0  0  0  0  0  0  0
   26.5790    0.1962  -13.0778 C   0  0  0  0  0  0  0  0  0  0  0  0
   25.2122   -0.3940  -13.0073 C   0  0  0  0  0  0  0  0  0  0  0  0
  1  2  1  6
  2  3  2  0
  2  4  2  0
  2  5  1  6
  5  6  2  0
  6  7  1  0
  7  8  2  0
  8  9  1  0
  9 10  1  0
 10 11  2  0
 11 12  1  0
 12 13  1  0
 12 14  2  0
 14 15  1  0
 15 16  1  0
 16 17  3  0
 15 18  2  0
  8 19  1  0
 19 20  2  0
 20 21  1  0
 21 22  2  0
 23 21  1  6
 23 24  1  0
 20  5  1  0
 18 10  1  0
 24 19  1  6
M  END
$$$$
