_rank16
     RDKit          3D

 24 26  0  0  0  0  0  0  0  0999 V2000
   28.4867   -1.6551   -8.9289 C   0  0  0  0  0  0  0  0  0  0  0  0
   27.5119   -0.2290   -8.5034 S   0  0  1  0  0  6  0  0  0  0  0  0
   27.3053   -0.2872   -7.0356 O   0  0  0  0  0  0  0  0  0  0  0  0
   28.3644    0.9836   -8.8551 O   0  0  0  0  0  0  0  0  0  0  0  0
   26.0905   -0.1656   -9.4560 C   0  0  0  0  0  0  0  0  0  0  0  0
   24.8572   -0.2422   -8.8408 C   0  0  0  0  0  0  0  0  0  0  0  0
   23.6772   -0.1933   -9.5860 C   0  0  0  0  0  0  0  0  0  0  0  0
   23.7007   -0.0687  -10.9438 C   0  0  0  0  0  0  0  0  0  0  0  0
   22.5383   -0.0187  -11.6988 O   0  0  0  0  0  0  0  0  0  0  0  0
   21.2666   -0.1715  -11.1488 C   0  0  0  0  0  0  0  0  0  0  0  0
   20.5880    0.8732  -10.5627 C   0  0  0  0  0  0  0  0  0  0  0  0
   19.3377    0.6556  -10.0390 C   0  0  0  0  0  0  0  0  0  0  0  0
   18.6410    1.6737   -9.4504 F   0  0  0  0  0  0  0  0  0  0  0  0
   18.7687   -0.5834  -10.0967 C   0  0  0  0  0  0  0  0  0  0  0  0
   19.4241   -1.6304  -10.6726 C   0  0  0  0  0  0  0  0  0  0  0  0
   18.8078   -2.9391  -10.7250 C   0  0  0  0  0  0  0  0  0  0  0  0
   18.3023   -3.9877  -10.7697 N   0  0  0  0  0  0  0  0  0  0  0  0
   20.6753   -1.4200  -11.1985 C   0  0  0  0  0  0  0  0  0  0  0  0
   24.9157    0.0093  -11.5788 C   0  0  0  0  0  0  0  0  0  0  0  0
   26.0713   -0.0403  -10.8294 C   0  0  0  0  0  0  0  0  0  0  0  0
   27.1720    0.0673  -11.7835 C   0  0  0  0  0  0  0  0  0  0  0  0
   28.3345   -0.2933  -11.5490 O   0  0  0  0  0  0  0  0  0  0  0  0
   26.6096    0.6778  -13.0385 C   0  0  0  0  0  0  0  0  0  0  0  0
   25.2177    0.1450  -13.0221 C   0  0  0  0  0  0  0  0  0  0  0  0
  1  2  1  6
  2  3  2  0
  2  4  2  0
  2  5  1  6
  5  6  2  0
  6  7  1  0
  7  8  2  0
  8  9  1  0
  9 10  1  0
 10 11  2  0
 11 12  1  0
 12 13  1  0
 12 14  2  0
 14 15  1  0
 15 16  1  0
 16 17  3  0
 15 18  2  0
  8 19  1  0
 19 20  2  0
 20 21  1  0
 21 22  2  0
 23 21  1  6
 23 24  1  0
 20  5  1  0
 18 10  1  0
 24 19  1  6
M  END
$$$$
