_rank11
     RDKit          3D

 24 26  0  0  0  0  0  0  0  0999 V2000
   28.4509    0.8787   -8.9115 C   0  0  0  0  0  0  0  0  0  0  0  0
   27.3782   -0.5021   -8.5837 S   0  0  1  0  0  6  0  0  0  0  0  0
   28.1903   -1.7236   -8.8048 O   0  0  0  0  0  0  0  0  0  0  0  0
   26.9959   -0.3981   -7.1127 O   0  0  0  0  0  0  0  0  0  0  0  0
   25.9425   -0.3818   -9.5090 C   0  0  0  0  0  0  0  0  0  0  0  0
   24.7242   -0.3039   -8.8646 C   0  0  0  0  0  0  0  0  0  0  0  0
   23.5333   -0.2044   -9.5871 C   0  0  0  0  0  0  0  0  0  0  0  0
   23.5310   -0.1809  -10.9506 C   0  0  0  0  0  0  0  0  0  0  0  0
   22.3574   -0.0825  -11.6833 O   0  0  0  0  0  0  0  0  0  0  0  0
   21.0912   -0.1657  -11.1065 C   0  0  0  0  0  0  0  0  0  0  0  0
   20.4866    0.9123  -10.5001 C   0  0  0  0  0  0  0  0  0  0  0  0
   19.2374    0.7635   -9.9504 C   0  0  0  0  0  0  0  0  0  0  0  0
   18.6133    1.8160   -9.3411 F   0  0  0  0  0  0  0  0  0  0  0  0
   18.5968   -0.4403  -10.0025 C   0  0  0  0  0  0  0  0  0  0  0  0
   19.1783   -1.5193  -10.5983 C   0  0  0  0  0  0  0  0  0  0  0  0
   18.4866   -2.7901  -10.6445 C   0  0  0  0  0  0  0  0  0  0  0  0
   17.9205   -3.8075  -10.6827 N   0  0  0  0  0  0  0  0  0  0  0  0
   20.4279   -1.3778  -11.1503 C   0  0  0  0  0  0  0  0  0  0  0  0
   24.7306   -0.2571  -11.6144 C   0  0  0  0  0  0  0  0  0  0  0  0
   25.8973   -0.3548  -10.8872 C   0  0  0  0  0  0  0  0  0  0  0  0
   26.9771   -0.4146  -11.8690 C   0  0  0  0  0  0  0  0  0  0  0  0
   28.1097   -0.8591  -11.6322 O   0  0  0  0  0  0  0  0  0  0  0  0
   26.4363    0.1512  -13.1542 C   0  0  0  0  0  0  0  0  0  0  0  0
   25.0043   -0.2534  -13.0697 C   0  0  0  0  0  0  0  0  0  0  0  0
  1  2  1  6
  2  3  2  0
  2  4  2  0
  2  5  1  6
  5  6  2  0
  6  7  1  0
  7  8  2  0
  8  9  1  0
  9 10  1  0
 10 11  2  0
 11 12  1  0
 12 13  1  0
 12 14  2  0
 14 15  1  0
 15 16  1  0
 16 17  3  0
 15 18  2  0
  8 19  1  0
 19 20  2  0
 20 21  1  0
 21 22  2  0
 23 21  1  6
 23 24  1  0
 20  5  1  0
 18 10  1  0
 24 19  1  6
M  END
$$$$
