_rank4
     RDKit          3D

 24 26  0  0  0  0  0  0  0  0999 V2000
   28.3889    1.1624   -8.2658 C   0  0  0  0  0  0  0  0  0  0  0  0
   27.7286   -0.4595   -8.5795 S   0  0  1  0  0  6  0  0  0  0  0  0
   28.8324   -1.2519   -9.1747 O   0  0  0  0  0  0  0  0  0  0  0  0
   27.3593   -1.0341   -7.2178 O   0  0  0  0  0  0  0  0  0  0  0  0
   26.2961   -0.3561   -9.5118 C   0  0  0  0  0  0  0  0  0  0  0  0
   25.0757   -0.5840   -8.9083 C   0  0  0  0  0  0  0  0  0  0  0  0
   23.8872   -0.5078   -9.6376 C   0  0  0  0  0  0  0  0  0  0  0  0
   23.8894   -0.2066  -10.9676 C   0  0  0  0  0  0  0  0  0  0  0  0
   22.7183   -0.1269  -11.7065 O   0  0  0  0  0  0  0  0  0  0  0  0
   21.4629   -0.4203  -11.1764 C   0  0  0  0  0  0  0  0  0  0  0  0
   20.9111   -1.6798  -11.2453 C   0  0  0  0  0  0  0  0  0  0  0  0
   19.6695   -1.9024  -10.7034 C   0  0  0  0  0  0  0  0  0  0  0  0
   19.0966   -3.1422  -10.7579 F   0  0  0  0  0  0  0  0  0  0  0  0
   18.9848   -0.8874  -10.1008 C   0  0  0  0  0  0  0  0  0  0  0  0
   19.5137    0.3662  -10.0224 C   0  0  0  0  0  0  0  0  0  0  0  0
   18.7745    1.4328   -9.3811 C   0  0  0  0  0  0  0  0  0  0  0  0
   18.1800    2.2970   -8.8742 N   0  0  0  0  0  0  0  0  0  0  0  0
   20.7554    0.5962  -10.5624 C   0  0  0  0  0  0  0  0  0  0  0  0
   25.0912    0.0242  -11.5904 C   0  0  0  0  0  0  0  0  0  0  0  0
   26.2555   -0.0547  -10.8570 C   0  0  0  0  0  0  0  0  0  0  0  0
   27.3382    0.2403  -11.7920 C   0  0  0  0  0  0  0  0  0  0  0  0
   28.5219   -0.0792  -11.6097 O   0  0  0  0  0  0  0  0  0  0  0  0
   26.7286    0.9748  -12.9551 C   0  0  0  0  0  0  0  0  0  0  0  0
   25.3700    0.3639  -13.0045 C   0  0  0  0  0  0  0  0  0  0  0  0
  1  2  1  6
  2  3  2  0
  2  4  2  0
  2  5  1  6
  5  6  2  0
  6  7  1  0
  7  8  2  0
  8  9  1  0
  9 10  1  0
 10 11  2  0
 11 12  1  0
 12 13  1  0
 12 14  2  0
 14 15  1  0
 15 16  1  0
 16 17  3  0
 15 18  2  0
  8 19  1  0
 19 20  2  0
 20 21  1  0
 21 22  2  0
 23 21  1  6
 23 24  1  0
 20  5  1  0
 18 10  1  0
 24 19  1  6
M  END
$$$$
