_rank13
     RDKit          3D

 24 26  0  0  0  0  0  0  0  0999 V2000
   28.1680    1.2208   -8.2964 C   0  0  0  0  0  0  0  0  0  0  0  0
   27.5665   -0.4284   -8.5851 S   0  0  1  0  0  6  0  0  0  0  0  0
   28.6918   -1.1839   -9.1881 O   0  0  0  0  0  0  0  0  0  0  0  0
   27.2381   -1.0029   -7.2130 O   0  0  0  0  0  0  0  0  0  0  0  0
   26.1185   -0.3895   -9.4982 C   0  0  0  0  0  0  0  0  0  0  0  0
   24.9066   -0.5449   -8.8558 C   0  0  0  0  0  0  0  0  0  0  0  0
   23.7060   -0.5182   -9.5685 C   0  0  0  0  0  0  0  0  0  0  0  0
   23.6875   -0.3384  -10.9202 C   0  0  0  0  0  0  0  0  0  0  0  0
   22.5042   -0.3093  -11.6430 O   0  0  0  0  0  0  0  0  0  0  0  0
   21.2481   -0.4333  -11.0514 C   0  0  0  0  0  0  0  0  0  0  0  0
   20.6763    0.5826  -10.3188 C   0  0  0  0  0  0  0  0  0  0  0  0
   19.4355    0.3960   -9.7618 C   0  0  0  0  0  0  0  0  0  0  0  0
   18.8438    1.3865   -9.0287 F   0  0  0  0  0  0  0  0  0  0  0  0
   18.7710   -0.7840   -9.9301 C   0  0  0  0  0  0  0  0  0  0  0  0
   19.3199   -1.8015  -10.6517 C   0  0  0  0  0  0  0  0  0  0  0  0
   18.6032   -3.0478  -10.8204 C   0  0  0  0  0  0  0  0  0  0  0  0
   18.0303   -4.0516  -10.9662 N   0  0  0  0  0  0  0  0  0  0  0  0
   20.5610   -1.6220  -11.2119 C   0  0  0  0  0  0  0  0  0  0  0  0
   24.8805   -0.1815  -11.5818 C   0  0  0  0  0  0  0  0  0  0  0  0
   26.0570   -0.2102  -10.8644 C   0  0  0  0  0  0  0  0  0  0  0  0
   27.1260   -0.0161  -11.8406 C   0  0  0  0  0  0  0  0  0  0  0  0
   28.3088   -0.3343  -11.6505 O   0  0  0  0  0  0  0  0  0  0  0  0
   26.5042    0.6189  -13.0549 C   0  0  0  0  0  0  0  0  0  0  0  0
   25.1375    0.0251  -13.0254 C   0  0  0  0  0  0  0  0  0  0  0  0
  1  2  1  6
  2  3  2  0
  2  4  2  0
  2  5  1  6
  5  6  2  0
  6  7  1  0
  7  8  2  0
  8  9  1  0
  9 10  1  0
 10 11  2  0
 11 12  1  0
 12 13  1  0
 12 14  2  0
 14 15  1  0
 15 16  1  0
 16 17  3  0
 15 18  2  0
  8 19  1  0
 19 20  2  0
 20 21  1  0
 21 22  2  0
 23 21  1  6
 23 24  1  0
 20  5  1  0
 18 10  1  0
 24 19  1  6
M  END
$$$$
