_rank15
     RDKit          3D

 24 26  0  0  0  0  0  0  0  0999 V2000
   28.5255   -2.1421   -8.5679 C   0  0  0  0  0  0  0  0  0  0  0  0
   27.8416   -0.5089   -8.3950 S   0  0  1  0  0  6  0  0  0  0  0  0
   27.7212   -0.2586   -6.9378 O   0  0  0  0  0  0  0  0  0  0  0  0
   28.8674    0.4428   -8.9972 O   0  0  0  0  0  0  0  0  0  0  0  0
   26.3954   -0.3632   -9.3000 C   0  0  0  0  0  0  0  0  0  0  0  0
   25.1787   -0.4853   -8.6596 C   0  0  0  0  0  0  0  0  0  0  0  0
   23.9793   -0.3718   -9.3658 C   0  0  0  0  0  0  0  0  0  0  0  0
   23.9669   -0.1371  -10.7091 C   0  0  0  0  0  0  0  0  0  0  0  0
   22.7849   -0.0216  -11.4255 O   0  0  0  0  0  0  0  0  0  0  0  0
   21.5614   -0.4973  -10.9564 C   0  0  0  0  0  0  0  0  0  0  0  0
   21.1804   -1.8127  -11.0974 C   0  0  0  0  0  0  0  0  0  0  0  0
   19.9611   -2.2170  -10.6131 C   0  0  0  0  0  0  0  0  0  0  0  0
   19.5561   -3.5164  -10.7398 F   0  0  0  0  0  0  0  0  0  0  0  0
   19.1309   -1.3265   -9.9966 C   0  0  0  0  0  0  0  0  0  0  0  0
   19.4898   -0.0203   -9.8472 C   0  0  0  0  0  0  0  0  0  0  0  0
   18.5977    0.9127   -9.1921 C   0  0  0  0  0  0  0  0  0  0  0  0
   17.8816    1.6584   -8.6554 N   0  0  0  0  0  0  0  0  0  0  0  0
   20.7081    0.3913  -10.3293 C   0  0  0  0  0  0  0  0  0  0  0  0
   25.1648   -0.0118  -11.3686 C   0  0  0  0  0  0  0  0  0  0  0  0
   26.3399   -0.1264  -10.6576 C   0  0  0  0  0  0  0  0  0  0  0  0
   27.4150    0.0548  -11.6296 C   0  0  0  0  0  0  0  0  0  0  0  0
   28.5814   -0.3278  -11.4571 O   0  0  0  0  0  0  0  0  0  0  0  0
   26.8225    0.7674  -12.8150 C   0  0  0  0  0  0  0  0  0  0  0  0
   25.4285    0.2399  -12.8038 C   0  0  0  0  0  0  0  0  0  0  0  0
  1  2  1  6
  2  3  2  0
  2  4  2  0
  2  5  1  6
  5  6  2  0
  6  7  1  0
  7  8  2  0
  8  9  1  0
  9 10  1  0
 10 11  2  0
 11 12  1  0
 12 13  1  0
 12 14  2  0
 14 15  1  0
 15 16  1  0
 16 17  3  0
 15 18  2  0
  8 19  1  0
 19 20  2  0
 20 21  1  0
 21 22  2  0
 23 21  1  6
 23 24  1  0
 20  5  1  0
 18 10  1  0
 24 19  1  6
M  END
$$$$
