_rank5
     RDKit          3D

 24 26  0  0  0  0  0  0  0  0999 V2000
   28.1219    1.1352   -8.2663 C   0  0  0  0  0  0  0  0  0  0  0  0
   27.6222   -0.5144   -8.7066 S   0  0  1  0  0  6  0  0  0  0  0  0
   28.7989   -1.1499   -9.3486 O   0  0  0  0  0  0  0  0  0  0  0  0
   27.3067   -1.2228   -7.3954 O   0  0  0  0  0  0  0  0  0  0  0  0
   26.1887   -0.4793   -9.6426 C   0  0  0  0  0  0  0  0  0  0  0  0
   24.9689   -0.6620   -9.0228 C   0  0  0  0  0  0  0  0  0  0  0  0
   23.7796   -0.6392   -9.7545 C   0  0  0  0  0  0  0  0  0  0  0  0
   23.7805   -0.4364  -11.1030 C   0  0  0  0  0  0  0  0  0  0  0  0
   22.6087   -0.4108  -11.8445 O   0  0  0  0  0  0  0  0  0  0  0  0
   21.3572   -0.6935  -11.2996 C   0  0  0  0  0  0  0  0  0  0  0  0
   20.7521   -1.9217  -11.4441 C   0  0  0  0  0  0  0  0  0  0  0  0
   19.5177   -2.1353  -10.8825 C   0  0  0  0  0  0  0  0  0  0  0  0
   18.8927   -3.3441  -11.0107 F   0  0  0  0  0  0  0  0  0  0  0  0
   18.8924   -1.1421  -10.1863 C   0  0  0  0  0  0  0  0  0  0  0  0
   19.4747    0.0804  -10.0320 C   0  0  0  0  0  0  0  0  0  0  0  0
   18.7982    1.1242   -9.2917 C   0  0  0  0  0  0  0  0  0  0  0  0
   18.2535    1.9579   -8.6871 N   0  0  0  0  0  0  0  0  0  0  0  0
   20.7095    0.3012  -10.5911 C   0  0  0  0  0  0  0  0  0  0  0  0
   24.9818   -0.2522  -11.7422 C   0  0  0  0  0  0  0  0  0  0  0  0
   26.1468   -0.2774  -11.0063 C   0  0  0  0  0  0  0  0  0  0  0  0
   27.2286   -0.0522  -11.9615 C   0  0  0  0  0  0  0  0  0  0  0  0
   28.4124   -0.3578  -11.7574 O   0  0  0  0  0  0  0  0  0  0  0  0
   26.6179    0.5951  -13.1748 C   0  0  0  0  0  0  0  0  0  0  0  0
   25.2591   -0.0174  -13.1777 C   0  0  0  0  0  0  0  0  0  0  0  0
  1  2  1  6
  2  3  2  0
  2  4  2  0
  2  5  1  6
  5  6  2  0
  6  7  1  0
  7  8  2  0
  8  9  1  0
  9 10  1  0
 10 11  2  0
 11 12  1  0
 12 13  1  0
 12 14  2  0
 14 15  1  0
 15 16  1  0
 16 17  3  0
 15 18  2  0
  8 19  1  0
 19 20  2  0
 20 21  1  0
 21 22  2  0
 23 21  1  6
 23 24  1  0
 20  5  1  0
 18 10  1  0
 24 19  1  6
M  END
$$$$
