_rank20
     RDKit          3D

 24 26  0  0  0  0  0  0  0  0999 V2000
   29.3582    1.2765  -10.7672 C   0  0  0  0  0  0  0  0  0  0  0  0
   27.8588    2.2338  -10.7549 S   0  0  1  0  0  6  0  0  0  0  0  0
   28.0767    3.3391   -9.7898 O   0  0  0  0  0  0  0  0  0  0  0  0
   27.7099    2.8008  -12.1610 O   0  0  0  0  0  0  0  0  0  0  0  0
   26.5063    1.2297  -10.4477 C   0  0  0  0  0  0  0  0  0  0  0  0
   25.3203    1.4661  -11.1134 C   0  0  0  0  0  0  0  0  0  0  0  0
   24.1973    0.6672  -10.8882 C   0  0  0  0  0  0  0  0  0  0  0  0
   24.2316   -0.3717  -10.0054 C   0  0  0  0  0  0  0  0  0  0  0  0
   23.1255   -1.1747   -9.7700 O   0  0  0  0  0  0  0  0  0  0  0  0
   21.8749   -0.9321  -10.3360 C   0  0  0  0  0  0  0  0  0  0  0  0
   21.5576   -1.3268  -11.6162 C   0  0  0  0  0  0  0  0  0  0  0  0
   20.3071   -1.0567  -12.1144 C   0  0  0  0  0  0  0  0  0  0  0  0
   19.9644   -1.4357  -13.3822 F   0  0  0  0  0  0  0  0  0  0  0  0
   19.3838   -0.4032  -11.3511 C   0  0  0  0  0  0  0  0  0  0  0  0
   19.6785   -0.0044  -10.0817 C   0  0  0  0  0  0  0  0  0  0  0  0
   18.6887    0.6889   -9.2848 C   0  0  0  0  0  0  0  0  0  0  0  0
   17.8843    1.2422   -8.6493 N   0  0  0  0  0  0  0  0  0  0  0  0
   20.9275   -0.2712   -9.5767 C   0  0  0  0  0  0  0  0  0  0  0  0
   25.4001   -0.6267   -9.3309 C   0  0  0  0  0  0  0  0  0  0  0  0
   26.4998    0.1706   -9.5642 C   0  0  0  0  0  0  0  0  0  0  0  0
   27.5625   -0.3531   -8.7098 C   0  0  0  0  0  0  0  0  0  0  0  0
   28.5640    0.2929   -8.3692 O   0  0  0  0  0  0  0  0  0  0  0  0
   27.1889   -1.7677   -8.3585 C   0  0  0  0  0  0  0  0  0  0  0  0
   25.7014   -1.6771   -8.3315 C   0  0  0  0  0  0  0  0  0  0  0  0
  1  2  1  6
  2  3  2  0
  2  4  2  0
  2  5  1  1
  5  6  2  0
  6  7  1  0
  7  8  2  0
  8  9  1  0
  9 10  1  0
 10 11  2  0
 11 12  1  0
 12 13  1  0
 12 14  2  0
 14 15  1  0
 15 16  1  0
 16 17  3  0
 15 18  2  0
  8 19  1  0
 19 20  2  0
 20 21  1  0
 21 22  2  0
 23 21  1  6
 23 24  1  0
 20  5  1  0
 18 10  1  0
 24 19  1  6
M  END
$$$$
