_rank9
     RDKit          3D

 24 26  0  0  0  0  0  0  0  0999 V2000
   27.2967    0.3862   -6.9054 C   0  0  0  0  0  0  0  0  0  0  0  0
   27.6634   -0.0367   -8.5941 S   0  0  1  0  0  6  0  0  0  0  0  0
   28.6602    0.9552   -9.0661 O   0  0  0  0  0  0  0  0  0  0  0  0
   28.2959   -1.4220   -8.5532 O   0  0  0  0  0  0  0  0  0  0  0  0
   26.2231   -0.1442   -9.5138 C   0  0  0  0  0  0  0  0  0  0  0  0
   25.0290   -0.4141   -8.8760 C   0  0  0  0  0  0  0  0  0  0  0  0
   23.8350   -0.5085   -9.5941 C   0  0  0  0  0  0  0  0  0  0  0  0
   23.8058   -0.3380  -10.9468 C   0  0  0  0  0  0  0  0  0  0  0  0
   22.6288   -0.4284  -11.6751 O   0  0  0  0  0  0  0  0  0  0  0  0
   21.3811   -0.6195  -11.0838 C   0  0  0  0  0  0  0  0  0  0  0  0
   20.7275   -1.8307  -11.1199 C   0  0  0  0  0  0  0  0  0  0  0  0
   19.4997   -1.9523  -10.5177 C   0  0  0  0  0  0  0  0  0  0  0  0
   18.8273   -3.1422  -10.5385 F   0  0  0  0  0  0  0  0  0  0  0  0
   18.9285   -0.8851   -9.8878 C   0  0  0  0  0  0  0  0  0  0  0  0
   19.5594    0.3221   -9.8410 C   0  0  0  0  0  0  0  0  0  0  0  0
   18.9400    1.4453   -9.1700 C   0  0  0  0  0  0  0  0  0  0  0  0
   18.4462    2.3559   -8.6372 N   0  0  0  0  0  0  0  0  0  0  0  0
   20.7879    0.4511  -10.4413 C   0  0  0  0  0  0  0  0  0  0  0  0
   24.9810   -0.0685  -11.6040 C   0  0  0  0  0  0  0  0  0  0  0  0
   26.1510    0.0215  -10.8812 C   0  0  0  0  0  0  0  0  0  0  0  0
   27.2008    0.3144  -11.8537 C   0  0  0  0  0  0  0  0  0  0  0  0
   28.4081    0.1143  -11.6566 O   0  0  0  0  0  0  0  0  0  0  0  0
   26.5260    0.8795  -13.0741 C   0  0  0  0  0  0  0  0  0  0  0  0
   25.2237    0.1551  -13.0475 C   0  0  0  0  0  0  0  0  0  0  0  0
  1  2  1  6
  2  3  2  0
  2  4  2  0
  2  5  1  6
  5  6  2  0
  6  7  1  0
  7  8  2  0
  8  9  1  0
  9 10  1  0
 10 11  2  0
 11 12  1  0
 12 13  1  0
 12 14  2  0
 14 15  1  0
 15 16  1  0
 16 17  3  0
 15 18  2  0
  8 19  1  0
 19 20  2  0
 20 21  1  0
 21 22  2  0
 23 21  1  6
 23 24  1  0
 20  5  1  0
 18 10  1  0
 24 19  1  6
M  END
$$$$
