_rank18
     RDKit          3D

 24 26  0  0  0  0  0  0  0  0999 V2000
   28.6907   -1.2497   -8.7822 C   0  0  0  0  0  0  0  0  0  0  0  0
   27.5988    0.1511   -8.6788 S   0  0  1  0  0  6  0  0  0  0  0  0
   27.3713    0.3976   -7.2338 O   0  0  0  0  0  0  0  0  0  0  0  0
   28.3587    1.3229   -9.2870 O   0  0  0  0  0  0  0  0  0  0  0  0
   26.1940   -0.1100   -9.6223 C   0  0  0  0  0  0  0  0  0  0  0  0
   25.0412   -0.5626   -9.0124 C   0  0  0  0  0  0  0  0  0  0  0  0
   23.8770   -0.7862   -9.7505 C   0  0  0  0  0  0  0  0  0  0  0  0
   23.8371   -0.5662  -11.0958 C   0  0  0  0  0  0  0  0  0  0  0  0
   22.6892   -0.7831  -11.8435 O   0  0  0  0  0  0  0  0  0  0  0  0
   21.4061   -0.7242  -11.3021 C   0  0  0  0  0  0  0  0  0  0  0  0
   21.1238   -0.0197  -10.1534 C   0  0  0  0  0  0  0  0  0  0  0  0
   19.8381   -0.0021   -9.6722 C   0  0  0  0  0  0  0  0  0  0  0  0
   19.5288    0.6879   -8.5335 F   0  0  0  0  0  0  0  0  0  0  0  0
   18.8457   -0.6752  -10.3234 C   0  0  0  0  0  0  0  0  0  0  0  0
   19.1047   -1.3782  -11.4619 C   0  0  0  0  0  0  0  0  0  0  0  0
   18.0414   -2.0882  -12.1407 C   0  0  0  0  0  0  0  0  0  0  0  0
   17.1931   -2.6666  -12.6909 N   0  0  0  0  0  0  0  0  0  0  0  0
   20.3886   -1.4003  -11.9490 C   0  0  0  0  0  0  0  0  0  0  0  0
   24.9713   -0.1159  -11.7251 C   0  0  0  0  0  0  0  0  0  0  0  0
   26.1124    0.1000  -10.9829 C   0  0  0  0  0  0  0  0  0  0  0  0
   27.1219    0.5697  -11.9283 C   0  0  0  0  0  0  0  0  0  0  0  0
   28.3434    0.5246  -11.7222 O   0  0  0  0  0  0  0  0  0  0  0  0
   26.3883    1.0889  -13.1351 C   0  0  0  0  0  0  0  0  0  0  0  0
   25.1945    0.1967  -13.1553 C   0  0  0  0  0  0  0  0  0  0  0  0
  1  2  1  6
  2  3  2  0
  2  4  2  0
  2  5  1  6
  5  6  2  0
  6  7  1  0
  7  8  2  0
  8  9  1  0
  9 10  1  0
 10 11  2  0
 11 12  1  0
 12 13  1  0
 12 14  2  0
 14 15  1  0
 15 16  1  0
 16 17  3  0
 15 18  2  0
  8 19  1  0
 19 20  2  0
 20 21  1  0
 21 22  2  0
 23 21  1  6
 23 24  1  0
 20  5  1  0
 18 10  1  0
 24 19  1  6
M  END
$$$$
