_rank1
     RDKit          3D

 24 26  0  0  0  0  0  0  0  0999 V2000
   28.4055    0.9955   -8.6120 C   0  0  0  0  0  0  0  0  0  0  0  0
   27.5850   -0.5825   -8.5754 S   0  0  1  0  0  6  0  0  0  0  0  0
   28.6007   -1.5907   -8.9656 O   0  0  0  0  0  0  0  0  0  0  0  0
   27.1679   -0.8065   -7.1274 O   0  0  0  0  0  0  0  0  0  0  0  0
   26.1646   -0.5445   -9.5310 C   0  0  0  0  0  0  0  0  0  0  0  0
   24.9405   -0.7769   -8.9369 C   0  0  0  0  0  0  0  0  0  0  0  0
   23.7616   -0.7533   -9.6851 C   0  0  0  0  0  0  0  0  0  0  0  0
   23.7772   -0.5008  -11.0252 C   0  0  0  0  0  0  0  0  0  0  0  0
   22.6158   -0.4737  -11.7829 O   0  0  0  0  0  0  0  0  0  0  0  0
   21.3560   -0.7507  -11.2544 C   0  0  0  0  0  0  0  0  0  0  0  0
   20.7218   -1.9557  -11.4573 C   0  0  0  0  0  0  0  0  0  0  0  0
   19.4807   -2.1650  -10.9090 C   0  0  0  0  0  0  0  0  0  0  0  0
   18.8269   -3.3510  -11.0947 F   0  0  0  0  0  0  0  0  0  0  0  0
   18.8773   -1.1903  -10.1688 C   0  0  0  0  0  0  0  0  0  0  0  0
   19.4886    0.0092   -9.9565 C   0  0  0  0  0  0  0  0  0  0  0  0
   18.8351    1.0337   -9.1699 C   0  0  0  0  0  0  0  0  0  0  0  0
   18.3085    1.8646   -8.5458 N   0  0  0  0  0  0  0  0  0  0  0  0
   20.7303    0.2255  -10.5020 C   0  0  0  0  0  0  0  0  0  0  0  0
   24.9830   -0.2665  -11.6389 C   0  0  0  0  0  0  0  0  0  0  0  0
   26.1376   -0.2932  -10.8868 C   0  0  0  0  0  0  0  0  0  0  0  0
   27.2276   -0.0089  -11.8166 C   0  0  0  0  0  0  0  0  0  0  0  0
   28.4150   -0.2955  -11.6060 O   0  0  0  0  0  0  0  0  0  0  0  0
   26.6199    0.6693  -13.0145 C   0  0  0  0  0  0  0  0  0  0  0  0
   25.2755    0.0274  -13.0605 C   0  0  0  0  0  0  0  0  0  0  0  0
  1  2  1  6
  2  3  2  0
  2  4  2  0
  2  5  1  6
  5  6  2  0
  6  7  1  0
  7  8  2  0
  8  9  1  0
  9 10  1  0
 10 11  2  0
 11 12  1  0
 12 13  1  0
 12 14  2  0
 14 15  1  0
 15 16  1  0
 16 17  3  0
 15 18  2  0
  8 19  1  0
 19 20  2  0
 20 21  1  0
 21 22  2  0
 23 21  1  6
 23 24  1  0
 20  5  1  0
 18 10  1  0
 24 19  1  6
M  END
$$$$
