_rank6
     RDKit          3D

 24 26  0  0  0  0  0  0  0  0999 V2000
   28.7177    0.7655   -8.7473 C   0  0  0  0  0  0  0  0  0  0  0  0
   27.6867   -0.6816   -8.6569 S   0  0  1  0  0  6  0  0  0  0  0  0
   28.5340   -1.8249   -9.0755 O   0  0  0  0  0  0  0  0  0  0  0  0
   27.3041   -0.8348   -7.1903 O   0  0  0  0  0  0  0  0  0  0  0  0
   26.2464   -0.4513   -9.5539 C   0  0  0  0  0  0  0  0  0  0  0  0
   25.0294   -0.4815   -8.9032 C   0  0  0  0  0  0  0  0  0  0  0  0
   23.8348   -0.2972   -9.6026 C   0  0  0  0  0  0  0  0  0  0  0  0
   23.8276   -0.0816  -10.9492 C   0  0  0  0  0  0  0  0  0  0  0  0
   22.6504    0.1033  -11.6589 O   0  0  0  0  0  0  0  0  0  0  0  0
   21.4064   -0.3181  -11.1921 C   0  0  0  0  0  0  0  0  0  0  0  0
   20.9501   -1.6044  -11.3724 C   0  0  0  0  0  0  0  0  0  0  0  0
   19.7143   -1.9554  -10.8880 C   0  0  0  0  0  0  0  0  0  0  0  0
   19.2351   -3.2249  -11.0532 F   0  0  0  0  0  0  0  0  0  0  0  0
   18.9419   -1.0409  -10.2330 C   0  0  0  0  0  0  0  0  0  0  0  0
   19.3757    0.2372  -10.0443 C   0  0  0  0  0  0  0  0  0  0  0  0
   18.5442    1.1963   -9.3485 C   0  0  0  0  0  0  0  0  0  0  0  0
   17.8663    1.9644   -8.7939 N   0  0  0  0  0  0  0  0  0  0  0  0
   20.6108    0.5955  -10.5262 C   0  0  0  0  0  0  0  0  0  0  0  0
   25.0259   -0.0472  -11.6188 C   0  0  0  0  0  0  0  0  0  0  0  0
   26.1962   -0.2308  -10.9144 C   0  0  0  0  0  0  0  0  0  0  0  0
   27.2734   -0.1368  -11.8965 C   0  0  0  0  0  0  0  0  0  0  0  0
   28.4125   -0.5950  -11.7264 O   0  0  0  0  0  0  0  0  0  0  0  0
   26.7209    0.5973  -13.0881 C   0  0  0  0  0  0  0  0  0  0  0  0
   25.2946    0.1656  -13.0594 C   0  0  0  0  0  0  0  0  0  0  0  0
  1  2  1  6
  2  3  2  0
  2  4  2  0
  2  5  1  6
  5  6  2  0
  6  7  1  0
  7  8  2  0
  8  9  1  0
  9 10  1  0
 10 11  2  0
 11 12  1  0
 12 13  1  0
 12 14  2  0
 14 15  1  0
 15 16  1  0
 16 17  3  0
 15 18  2  0
  8 19  1  0
 19 20  2  0
 20 21  1  0
 21 22  2  0
 23 21  1  6
 23 24  1  0
 20  5  1  0
 18 10  1  0
 24 19  1  6
M  END
$$$$
