_rank6
     RDKit          3D

 19 21  0  0  0  0  0  0  0  0999 V2000
   19.0929   -1.2201   -8.4347 N   0  0  0  0  0  0  0  0  0  0  0  0
   19.8726   -1.2379   -9.2664 C   0  0  0  0  0  0  0  0  0  0  0  0
   20.8564   -1.2449  -10.3395 C   0  0  0  0  0  0  0  0  0  0  0  0
   20.4989   -1.2554  -11.6544 C   0  0  0  0  0  0  0  0  0  0  0  0
   21.4583   -1.2616  -12.6165 C   0  0  0  0  0  0  0  0  0  0  0  0
   21.0650   -1.2720  -13.9293 F   0  0  0  0  0  0  0  0  0  0  0  0
   22.7970   -1.2574  -12.2740 C   0  0  0  0  0  0  0  0  0  0  0  0
   23.2167   -1.2467  -10.9416 C   0  0  0  0  0  0  0  0  0  0  0  0
   24.5714   -1.2416  -10.6093 N   0  0  0  0  0  0  0  0  0  0  0  0
   25.3783   -0.0937  -10.3467 C   0  0  1  0  0  0  0  0  0  0  0  0
   25.2135    0.2960   -8.9147 C   0  0  0  0  0  0  0  0  0  0  0  0
   26.4773    0.0327   -8.0810 C   0  0  0  0  0  0  0  0  0  0  0  0
   27.6355    0.8413   -8.5531 C   0  0  0  0  0  0  0  0  0  0  0  0
   27.7352    0.7231  -10.0390 C   0  0  0  0  0  0  0  0  0  0  0  0
   26.8681   -0.4097  -10.5449 C   0  0  2  0  0  0  0  0  0  0  0  0
   27.0450   -0.4352  -12.0516 C   0  0  0  0  0  0  0  0  0  0  0  0
   26.0798    0.6252  -12.5204 C   0  0  0  0  0  0  0  0  0  0  0  0
   25.2138    1.0143  -11.3428 C   0  0  0  0  0  0  0  0  0  0  0  0
   22.1954   -1.2409  -10.0195 C   0  0  0  0  0  0  0  0  0  0  0  0
  1  2  3  0
  2  3  1  0
  3  4  2  0
  4  5  1  0
  5  6  1  0
  5  7  2  0
  7  8  1  0
  8  9  1  0
 10  9  1  6
 11 10  1  1
 12 11  1  1
 13 12  1  6
 14 13  1  6
 15 14  1  1
 16 15  1  1
 17 16  1  6
 18 17  1  6
  8 19  2  0
 19  3  1  0
 15 10  1  0
 18 10  1  0
M  END
$$$$
