_rank14
     RDKit          3D

 19 21  0  0  0  0  0  0  0  0999 V2000
   27.3737    1.9976   -7.1143 N   0  0  0  0  0  0  0  0  0  0  0  0
   26.8868    1.2722   -7.8469 C   0  0  0  0  0  0  0  0  0  0  0  0
   26.2484    0.3609   -8.7857 C   0  0  0  0  0  0  0  0  0  0  0  0
   26.7682   -0.8642   -9.0783 C   0  0  0  0  0  0  0  0  0  0  0  0
   26.1314   -1.6759   -9.9625 C   0  0  0  0  0  0  0  0  0  0  0  0
   26.6807   -2.9016  -10.2347 F   0  0  0  0  0  0  0  0  0  0  0  0
   24.9583   -1.2703  -10.5699 C   0  0  0  0  0  0  0  0  0  0  0  0
   24.3837   -0.0248  -10.3048 C   0  0  0  0  0  0  0  0  0  0  0  0
   23.1986    0.3722  -10.9239 N   0  0  0  0  0  0  0  0  0  0  0  0
   21.9645   -0.3451  -10.9375 C   0  0  1  0  0  0  0  0  0  0  0  0
   21.9583   -1.2750  -12.1059 C   0  0  0  0  0  0  0  0  0  0  0  0
   22.0526   -2.7508  -11.6876 C   0  0  0  0  0  0  0  0  0  0  0  0
   20.8814   -3.1751  -10.8715 C   0  0  0  0  0  0  0  0  0  0  0  0
   20.6381   -2.1558   -9.8066 C   0  0  0  0  0  0  0  0  0  0  0  0
   21.8205   -1.2190   -9.6828 C   0  0  2  0  0  0  0  0  0  0  0  0
   21.4651   -0.2350   -8.5839 C   0  0  0  0  0  0  0  0  0  0  0  0
   20.6238    0.7866   -9.3079 C   0  0  0  0  0  0  0  0  0  0  0  0
   20.7490    0.5198  -10.7916 C   0  0  0  0  0  0  0  0  0  0  0  0
   25.0788    0.7460   -9.4015 C   0  0  0  0  0  0  0  0  0  0  0  0
  1  2  3  0
  2  3  1  0
  3  4  2  0
  4  5  1  0
  5  6  1  0
  5  7  2  0
  7  8  1  0
  8  9  1  0
 10  9  1  1
 11 10  1  1
 12 11  1  1
 13 12  1  6
 14 13  1  6
 15 14  1  6
 16 15  1  1
 17 16  1  6
 18 17  1  6
  8 19  2  0
 19  3  1  0
 15 10  1  0
 18 10  1  0
M  END
$$$$
