_rank10
     RDKit          3D

 19 21  0  0  0  0  0  0  0  0999 V2000
   22.1284   -3.1853   -7.6935 N   0  0  0  0  0  0  0  0  0  0  0  0
   22.1459   -2.6204   -8.6838 C   0  0  0  0  0  0  0  0  0  0  0  0
   22.1906   -1.8957   -9.9455 C   0  0  0  0  0  0  0  0  0  0  0  0
   21.1786   -1.9569  -10.8561 C   0  0  0  0  0  0  0  0  0  0  0  0
   21.2715   -1.2601  -12.0189 C   0  0  0  0  0  0  0  0  0  0  0  0
   20.2363   -1.3433  -12.9131 F   0  0  0  0  0  0  0  0  0  0  0  0
   22.3851   -0.4877  -12.2882 C   0  0  0  0  0  0  0  0  0  0  0  0
   23.4498   -0.3908  -11.3889 C   0  0  0  0  0  0  0  0  0  0  0  0
   24.5679    0.3933  -11.6726 N   0  0  0  0  0  0  0  0  0  0  0  0
   25.7694    0.4702  -10.9057 C   0  0  1  0  0  0  0  0  0  0  0  0
   25.5436    1.3790   -9.7426 C   0  0  0  0  0  0  0  0  0  0  0  0
   25.5155    0.6280   -8.4021 C   0  0  0  0  0  0  0  0  0  0  0  0
   26.8163   -0.0342   -8.1064 C   0  0  0  0  0  0  0  0  0  0  0  0
   27.2682   -0.7781   -9.3207 C   0  0  0  0  0  0  0  0  0  0  0  0
   26.1406   -0.9014  -10.3229 C   0  0  2  0  0  0  0  0  0  0  0  0
   26.7087   -1.6653  -11.5044 C   0  0  0  0  0  0  0  0  0  0  0  0
   27.4072   -0.5876  -12.2958 C   0  0  0  0  0  0  0  0  0  0  0  0
   26.9992    0.7487  -11.7161 C   0  0  0  0  0  0  0  0  0  0  0  0
   23.2913   -1.1204  -10.2332 C   0  0  0  0  0  0  0  0  0  0  0  0
  1  2  3  0
  2  3  1  0
  3  4  2  0
  4  5  1  0
  5  6  1  0
  5  7  2  0
  7  8  1  0
  8  9  1  0
 10  9  1  6
 11 10  1  1
 12 11  1  1
 13 12  1  6
 14 13  1  6
 15 14  1  1
 16 15  1  1
 17 16  1  6
 18 17  1  6
  8 19  2  0
 19  3  1  0
 15 10  1  0
 18 10  1  0
M  END
$$$$
