_rank19
     RDKit          3D

 19 21  0  0  0  0  0  0  0  0999 V2000
   28.9837   -0.3537   -9.5287 N   0  0  0  0  0  0  0  0  0  0  0  0
   27.8607   -0.4134   -9.3410 C   0  0  0  0  0  0  0  0  0  0  0  0
   26.4246   -0.4683   -9.1088 C   0  0  0  0  0  0  0  0  0  0  0  0
   25.8909   -0.5048   -7.8556 C   0  0  0  0  0  0  0  0  0  0  0  0
   24.5426   -0.5556   -7.6953 C   0  0  0  0  0  0  0  0  0  0  0  0
   24.0384   -0.5913   -6.4215 F   0  0  0  0  0  0  0  0  0  0  0  0
   23.7045   -0.5706   -8.7939 C   0  0  0  0  0  0  0  0  0  0  0  0
   24.2002   -0.5347  -10.0995 C   0  0  0  0  0  0  0  0  0  0  0  0
   23.3432   -0.5493  -11.1999 N   0  0  0  0  0  0  0  0  0  0  0  0
   22.1248   -1.2836  -11.3193 C   0  0  1  0  0  0  0  0  0  0  0  0
   22.1888   -2.4758  -10.4225 C   0  0  0  0  0  0  0  0  0  0  0  0
   21.2355   -2.3648   -9.2222 C   0  0  0  0  0  0  0  0  0  0  0  0
   19.8095   -2.2978   -9.6468 C   0  0  0  0  0  0  0  0  0  0  0  0
   19.6779   -1.2940  -10.7455 C   0  0  0  0  0  0  0  0  0  0  0  0
   20.9273   -0.4457  -10.8475 C   0  0  2  0  0  0  0  0  0  0  0  0
   20.6839    0.5277  -11.9857 C   0  0  0  0  0  0  0  0  0  0  0  0
   21.0360   -0.2877  -13.2051 C   0  0  0  0  0  0  0  0  0  0  0  0
   21.7083   -1.5577  -12.7328 C   0  0  0  0  0  0  0  0  0  0  0  0
   25.5722   -0.4840  -10.1899 C   0  0  0  0  0  0  0  0  0  0  0  0
  1  2  3  0
  2  3  1  0
  3  4  2  0
  4  5  1  0
  5  6  1  0
  5  7  2  0
  7  8  1  0
  8  9  1  0
 10  9  1  6
 11 10  1  1
 12 11  1  1
 13 12  1  6
 14 13  1  6
 15 14  1  6
 16 15  1  1
 17 16  1  6
 18 17  1  6
  8 19  2  0
 19  3  1  0
 15 10  1  0
 18 10  1  0
M  END
$$$$
