_rank7
     RDKit          3D

 19 21  0  0  0  0  0  0  0  0999 V2000
   18.5894   -0.5673   -9.0287 N   0  0  0  0  0  0  0  0  0  0  0  0
   19.6007   -0.6272   -9.5518 C   0  0  0  0  0  0  0  0  0  0  0  0
   20.8827   -0.6945  -10.2384 C   0  0  0  0  0  0  0  0  0  0  0  0
   21.0571   -1.4085  -11.3858 C   0  0  0  0  0  0  0  0  0  0  0  0
   22.2756   -1.4376  -11.9862 C   0  0  0  0  0  0  0  0  0  0  0  0
   22.4172   -2.1651  -13.1389 F   0  0  0  0  0  0  0  0  0  0  0  0
   23.3431   -0.7483  -11.4433 C   0  0  0  0  0  0  0  0  0  0  0  0
   23.2178   -0.0015  -10.2693 C   0  0  0  0  0  0  0  0  0  0  0  0
   24.3031    0.6906   -9.7322 N   0  0  0  0  0  0  0  0  0  0  0  0
   25.6785    0.5083  -10.0680 C   0  0  1  0  0  0  0  0  0  0  0  0
   26.5177    1.2885   -9.1105 C   0  0  0  0  0  0  0  0  0  0  0  0
   27.3132    0.3883   -8.1521 C   0  0  0  0  0  0  0  0  0  0  0  0
   28.2860   -0.4758   -8.8767 C   0  0  0  0  0  0  0  0  0  0  0  0
   27.5943   -1.1183  -10.0347 C   0  0  0  0  0  0  0  0  0  0  0  0
   26.0935   -0.9624   -9.9147 C   0  0  2  0  0  0  0  0  0  0  0  0
   25.5004   -1.6445  -11.1334 C   0  0  0  0  0  0  0  0  0  0  0  0
   25.6104   -0.5821  -12.1988 C   0  0  0  0  0  0  0  0  0  0  0  0
   25.9896    0.7152  -11.5196 C   0  0  0  0  0  0  0  0  0  0  0  0
   21.9590   -0.0148   -9.7139 C   0  0  0  0  0  0  0  0  0  0  0  0
  1  2  3  0
  2  3  1  0
  3  4  2  0
  4  5  1  0
  5  6  1  0
  5  7  2  0
  7  8  1  0
  8  9  1  0
 10  9  1  6
 11 10  1  1
 12 11  1  1
 13 12  1  6
 14 13  1  6
 15 14  1  6
 16 15  1  1
 17 16  1  6
 18 17  1  6
  8 19  2  0
 19  3  1  0
 15 10  1  0
 18 10  1  0
M  END
$$$$
