_rank4
     RDKit          3D

 19 21  0  0  0  0  0  0  0  0999 V2000
   18.4131    2.1515  -10.2016 N   0  0  0  0  0  0  0  0  0  0  0  0
   19.2484    1.3761  -10.1717 C   0  0  0  0  0  0  0  0  0  0  0  0
   20.3093    0.3810  -10.1121 C   0  0  0  0  0  0  0  0  0  0  0  0
   20.1056   -0.9214  -10.4574 C   0  0  0  0  0  0  0  0  0  0  0  0
   21.1313   -1.8095  -10.3832 C   0  0  0  0  0  0  0  0  0  0  0  0
   20.8929   -3.1117  -10.7378 F   0  0  0  0  0  0  0  0  0  0  0  0
   22.3826   -1.4042   -9.9598 C   0  0  0  0  0  0  0  0  0  0  0  0
   22.6442   -0.0814   -9.5945 C   0  0  0  0  0  0  0  0  0  0  0  0
   23.9123    0.3150   -9.1697 N   0  0  0  0  0  0  0  0  0  0  0  0
   25.1164    0.2763   -9.9354 C   0  0  1  0  0  0  0  0  0  0  0  0
   26.0190    1.3723   -9.4730 C   0  0  0  0  0  0  0  0  0  0  0  0
   27.2546    0.8454   -8.7264 C   0  0  0  0  0  0  0  0  0  0  0  0
   28.1161    0.0010   -9.5999 C   0  0  0  0  0  0  0  0  0  0  0  0
   27.2559   -0.9849  -10.3210 C   0  0  0  0  0  0  0  0  0  0  0  0
   25.8740   -1.0398   -9.7059 C   0  0  2  0  0  0  0  0  0  0  0  0
   25.0945   -2.0622  -10.5116 C   0  0  0  0  0  0  0  0  0  0  0  0
   24.6249   -1.2635  -11.7021 C   0  0  0  0  0  0  0  0  0  0  0  0
   24.9008    0.1961  -11.4165 C   0  0  0  0  0  0  0  0  0  0  0  0
   21.5634    0.7643   -9.6928 C   0  0  0  0  0  0  0  0  0  0  0  0
  1  2  3  0
  2  3  1  0
  3  4  2  0
  4  5  1  0
  5  6  1  0
  5  7  2  0
  7  8  1  0
  8  9  1  0
 10  9  1  1
 11 10  1  1
 12 11  1  1
 13 12  1  6
 14 13  1  6
 15 14  1  6
 16 15  1  1
 17 16  1  6
 18 17  1  6
  8 19  2  0
 19  3  1  0
 15 10  1  0
 18 10  1  0
M  END
$$$$
