_rank8
     RDKit          3D

 19 21  0  0  0  0  0  0  0  0999 V2000
   28.2034   -0.0990   -7.2376 N   0  0  0  0  0  0  0  0  0  0  0  0
   27.4773   -0.1202   -8.1164 C   0  0  0  0  0  0  0  0  0  0  0  0
   26.5650   -0.1597   -9.2502 C   0  0  0  0  0  0  0  0  0  0  0  0
   27.0045   -0.2866  -10.5338 C   0  0  0  0  0  0  0  0  0  0  0  0
   26.1094   -0.3182  -11.5555 C   0  0  0  0  0  0  0  0  0  0  0  0
   26.5845   -0.4468  -12.8346 F   0  0  0  0  0  0  0  0  0  0  0  0
   24.7538   -0.2225  -11.3055 C   0  0  0  0  0  0  0  0  0  0  0  0
   24.2512   -0.0910  -10.0086 C   0  0  0  0  0  0  0  0  0  0  0  0
   22.8803    0.0036   -9.7697 N   0  0  0  0  0  0  0  0  0  0  0  0
   21.8339   -0.4421  -10.6323 C   0  0  1  0  0  0  0  0  0  0  0  0
   22.1348   -1.8352  -11.0779 C   0  0  0  0  0  0  0  0  0  0  0  0
   21.1778   -2.8711  -10.4673 C   0  0  0  0  0  0  0  0  0  0  0  0
   19.7676   -2.6446  -10.8895 C   0  0  0  0  0  0  0  0  0  0  0  0
   19.4383   -1.1970  -10.7216 C   0  0  0  0  0  0  0  0  0  0  0  0
   20.4924   -0.5019   -9.8870 C   0  0  2  0  0  0  0  0  0  0  0  0
   20.0596    0.9487   -9.7844 C   0  0  0  0  0  0  0  0  0  0  0  0
   20.5688    1.5424  -11.0745 C   0  0  0  0  0  0  0  0  0  0  0  0
   21.4817    0.5248  -11.7222 C   0  0  0  0  0  0  0  0  0  0  0  0
   25.2105   -0.0659   -9.0225 C   0  0  0  0  0  0  0  0  0  0  0  0
  1  2  3  0
  2  3  1  0
  3  4  2  0
  4  5  1  0
  5  6  1  0
  5  7  2  0
  7  8  1  0
  8  9  1  0
 10  9  1  1
 11 10  1  1
 12 11  1  1
 13 12  1  6
 14 13  1  6
 15 14  1  6
 16 15  1  1
 17 16  1  6
 18 17  1  6
  8 19  2  0
 19  3  1  0
 15 10  1  0
 18 10  1  0
M  END
$$$$
