_rank2
     RDKit          3D

 19 21  0  0  0  0  0  0  0  0999 V2000
   19.4879    2.5184   -9.2371 N   0  0  0  0  0  0  0  0  0  0  0  0
   19.9601    1.5617   -9.6393 C   0  0  0  0  0  0  0  0  0  0  0  0
   20.5713    0.3519  -10.1704 C   0  0  0  0  0  0  0  0  0  0  0  0
   19.8346   -0.6568  -10.7152 C   0  0  0  0  0  0  0  0  0  0  0  0
   20.4561   -1.7650  -11.1965 C   0  0  0  0  0  0  0  0  0  0  0  0
   19.6860   -2.7609  -11.7381 F   0  0  0  0  0  0  0  0  0  0  0  0
   21.8319   -1.8800  -11.1390 C   0  0  0  0  0  0  0  0  0  0  0  0
   22.6330   -0.8753  -10.5908 C   0  0  0  0  0  0  0  0  0  0  0  0
   24.0210   -1.0034  -10.5397 N   0  0  0  0  0  0  0  0  0  0  0  0
   24.9631    0.0412  -10.2966 C   0  0  1  0  0  0  0  0  0  0  0  0
   25.0936    0.2415   -8.8226 C   0  0  0  0  0  0  0  0  0  0  0  0
   26.4569   -0.2174   -8.2818 C   0  0  0  0  0  0  0  0  0  0  0  0
   27.5806    0.5689   -8.8625 C   0  0  0  0  0  0  0  0  0  0  0  0
   27.4015    0.6487  -10.3435 C   0  0  0  0  0  0  0  0  0  0  0  0
   26.3583   -0.3437  -10.8104 C   0  0  2  0  0  0  0  0  0  0  0  0
   26.2595   -0.1746  -12.3150 C   0  0  0  0  0  0  0  0  0  0  0  0
   25.3266    1.0022  -12.4595 C   0  0  0  0  0  0  0  0  0  0  0  0
   24.7246    1.2836  -11.1006 C   0  0  0  0  0  0  0  0  0  0  0  0
   21.9406    0.2176  -10.1226 C   0  0  0  0  0  0  0  0  0  0  0  0
  1  2  3  0
  2  3  1  0
  3  4  2  0
  4  5  1  0
  5  6  1  0
  5  7  2  0
  7  8  1  0
  8  9  1  0
 10  9  1  1
 11 10  1  1
 12 11  1  1
 13 12  1  6
 14 13  1  6
 15 14  1  1
 16 15  1  1
 17 16  1  6
 18 17  1  6
  8 19  2  0
 19  3  1  0
 15 10  1  0
 18 10  1  0
M  END
$$$$
