_rank11
     RDKit          3D

 19 21  0  0  0  0  0  0  0  0999 V2000
   28.2048    0.5113   -6.8850 N   0  0  0  0  0  0  0  0  0  0  0  0
   27.6173    0.2457   -7.8253 C   0  0  0  0  0  0  0  0  0  0  0  0
   26.8478   -0.0916   -9.0141 C   0  0  0  0  0  0  0  0  0  0  0  0
   27.4408   -0.4564  -10.1855 C   0  0  0  0  0  0  0  0  0  0  0  0
   26.6748   -0.7612  -11.2656 C   0  0  0  0  0  0  0  0  0  0  0  0
   27.3026   -1.1243  -12.4285 F   0  0  0  0  0  0  0  0  0  0  0  0
   25.2963   -0.7049  -11.1880 C   0  0  0  0  0  0  0  0  0  0  0  0
   24.6389   -0.3371  -10.0114 C   0  0  0  0  0  0  0  0  0  0  0  0
   23.2467   -0.2851   -9.9460 N   0  0  0  0  0  0  0  0  0  0  0  0
   22.3294   -1.0505  -10.7273 C   0  0  1  0  0  0  0  0  0  0  0  0
   22.1540   -2.3906  -10.0923 C   0  0  0  0  0  0  0  0  0  0  0  0
   20.7592   -2.5739   -9.4738 C   0  0  0  0  0  0  0  0  0  0  0  0
   19.6811   -2.5070  -10.4992 C   0  0  0  0  0  0  0  0  0  0  0  0
   19.9140   -1.3154  -11.3698 C   0  0  0  0  0  0  0  0  0  0  0  0
   20.9417   -0.3929  -10.7502 C   0  0  2  0  0  0  0  0  0  0  0  0
   21.0979    0.7703  -11.7119 C   0  0  0  0  0  0  0  0  0  0  0  0
   22.0710    0.2334  -12.7320 C   0  0  0  0  0  0  0  0  0  0  0  0
   22.6339   -1.0639  -12.1949 C   0  0  0  0  0  0  0  0  0  0  0  0
   25.4731   -0.0418   -8.9577 C   0  0  0  0  0  0  0  0  0  0  0  0
  1  2  3  0
  2  3  1  0
  3  4  2  0
  4  5  1  0
  5  6  1  0
  5  7  2  0
  7  8  1  0
  8  9  1  0
 10  9  1  1
 11 10  1  1
 12 11  1  1
 13 12  1  6
 14 13  1  6
 15 14  1  6
 16 15  1  1
 17 16  1  6
 18 17  1  6
  8 19  2  0
 19  3  1  0
 15 10  1  0
 18 10  1  0
M  END
$$$$
