_rank7
     RDKit          3D

 25 27  0  0  0  0  0  0  0  0999 V2000
   28.7930   -1.6125   -9.0848 C   0  0  0  0  0  0  0  0  0  0  0  0
   27.6958   -0.3372   -8.4933 S   0  0  1  0  0  6  0  0  0  0  0  0
   27.3460   -0.6923   -7.0683 O   0  0  0  0  0  0  0  0  0  0  0  0
   28.3763    0.9802   -8.5098 O   0  0  0  0  0  0  0  0  0  0  0  0
   26.2535   -0.2553   -9.4752 C   0  0  0  0  0  0  0  0  0  0  0  0
   25.0089   -0.5059   -8.9035 C   0  0  0  0  0  0  0  0  0  0  0  0
   23.8561   -0.4413   -9.6523 C   0  0  0  0  0  0  0  0  0  0  0  0
   23.9187   -0.1192  -11.0162 C   0  0  0  0  0  0  0  0  0  0  0  0
   22.7154   -0.0704  -11.7210 O   0  0  0  0  0  0  0  0  0  0  0  0
   21.5331   -0.4330  -11.0974 C   0  0  0  0  0  0  0  0  0  0  0  0
   21.0710   -1.7539  -11.1586 C   0  0  0  0  0  0  0  0  0  0  0  0
   19.9092   -2.1272  -10.5473 C   0  0  0  0  0  0  0  0  0  0  0  0
   19.4690   -3.4080  -10.6114 F   0  0  0  0  0  0  0  0  0  0  0  0
   19.1398   -1.2345   -9.8465 C   0  0  0  0  0  0  0  0  0  0  0  0
   19.5613    0.0749   -9.7636 C   0  0  0  0  0  0  0  0  0  0  0  0
   18.7622    1.0222   -9.0305 C   0  0  0  0  0  0  0  0  0  0  0  0
   18.1341    1.7875   -8.4285 N   0  0  0  0  0  0  0  0  0  0  0  0
   20.7313    0.4319  -10.3841 C   0  0  0  0  0  0  0  0  0  0  0  0
   25.1323    0.1310  -11.6051 C   0  0  0  0  0  0  0  0  0  0  0  0
   26.2809    0.0560  -10.8093 C   0  0  0  0  0  0  0  0  0  0  0  0
   27.4791    0.3669  -11.6687 C   0  0  2  0  0  0  0  0  0  0  0  0
   28.4808    1.0112  -10.9958 O   0  0  0  0  0  0  0  0  0  0  0  0
   26.8222    1.2872  -12.7136 C   0  0  0  0  0  0  0  0  0  0  0  0
   25.5639    0.4566  -12.9848 C   0  0  1  0  0  0  0  0  0  0  0  0
   26.0165   -0.7421  -13.5533 F   0  0  0  0  0  0  0  0  0  0  0  0
  1  2  1  1
  2  3  2  0
  2  4  2  0
  2  5  1  6
  5  6  2  0
  6  7  1  0
  7  8  2  0
  8  9  1  0
  9 10  1  0
 10 11  2  0
 11 12  1  0
 12 13  1  0
 12 14  2  0
 14 15  1  0
 15 16  1  0
 16 17  3  0
 15 18  2  0
  8 19  1  0
 19 20  2  0
 20 21  1  0
 21 22  1  1
 23 21  1  1
 23 24  1  0
 24 25  1  6
 20  5  1  0
 18 10  1  0
 24 19  1  0
M  END
$$$$
