_rank15
     RDKit          3D

 25 27  0  0  0  0  0  0  0  0999 V2000
   28.7730   -1.4839   -9.2639 C   0  0  0  0  0  0  0  0  0  0  0  0
   27.5370   -0.4593   -8.4875 S   0  0  1  0  0  6  0  0  0  0  0  0
   27.2126   -1.1011   -7.1601 O   0  0  0  0  0  0  0  0  0  0  0  0
   28.0700    0.9035   -8.2478 O   0  0  0  0  0  0  0  0  0  0  0  0
   26.1051   -0.3534   -9.4822 C   0  0  0  0  0  0  0  0  0  0  0  0
   24.8628   -0.6867   -8.9491 C   0  0  0  0  0  0  0  0  0  0  0  0
   23.7179   -0.6056   -9.7083 C   0  0  0  0  0  0  0  0  0  0  0  0
   23.7864   -0.1819  -11.0438 C   0  0  0  0  0  0  0  0  0  0  0  0
   22.5909   -0.1214  -11.7611 O   0  0  0  0  0  0  0  0  0  0  0  0
   21.3898   -0.3952  -11.1283 C   0  0  0  0  0  0  0  0  0  0  0  0
   20.7311    0.5960  -10.3897 C   0  0  0  0  0  0  0  0  0  0  0  0
   19.5456    0.3422   -9.7625 C   0  0  0  0  0  0  0  0  0  0  0  0
   18.9146    1.3074   -9.0495 F   0  0  0  0  0  0  0  0  0  0  0  0
   18.9427   -0.8877   -9.8229 C   0  0  0  0  0  0  0  0  0  0  0  0
   19.5603   -1.8892  -10.5404 C   0  0  0  0  0  0  0  0  0  0  0  0
   18.9371   -3.1854  -10.6114 C   0  0  0  0  0  0  0  0  0  0  0  0
   18.4308   -4.2249  -10.6872 N   0  0  0  0  0  0  0  0  0  0  0  0
   20.7510   -1.6160  -11.1640 C   0  0  0  0  0  0  0  0  0  0  0  0
   24.9979    0.1513  -11.5946 C   0  0  0  0  0  0  0  0  0  0  0  0
   26.1384    0.0561  -10.7894 C   0  0  0  0  0  0  0  0  0  0  0  0
   27.3359    0.4694  -11.6057 C   0  0  2  0  0  0  0  0  0  0  0  0
   28.3063    1.0953  -10.8725 O   0  0  0  0  0  0  0  0  0  0  0  0
   26.6608    1.4417  -12.5901 C   0  0  0  0  0  0  0  0  0  0  0  0
   25.4352    0.5919  -12.9402 C   0  0  1  0  0  0  0  0  0  0  0  0
   25.9358   -0.5459  -13.5881 F   0  0  0  0  0  0  0  0  0  0  0  0
  1  2  1  1
  2  3  2  0
  2  4  2  0
  2  5  1  6
  5  6  2  0
  6  7  1  0
  7  8  2  0
  8  9  1  0
  9 10  1  0
 10 11  2  0
 11 12  1  0
 12 13  1  0
 12 14  2  0
 14 15  1  0
 15 16  1  0
 16 17  3  0
 15 18  2  0
  8 19  1  0
 19 20  2  0
 20 21  1  0
 21 22  1  1
 23 21  1  1
 23 24  1  0
 24 25  1  6
 20  5  1  0
 18 10  1  0
 24 19  1  0
M  END
$$$$
