_rank11
     RDKit          3D

 25 27  0  0  0  0  0  0  0  0999 V2000
   28.3609   -1.7165   -8.6651 C   0  0  0  0  0  0  0  0  0  0  0  0
   27.5370   -0.1381   -8.5642 S   0  0  1  0  0  6  0  0  0  0  0  0
   27.2166    0.0919   -7.1070 O   0  0  0  0  0  0  0  0  0  0  0  0
   28.4322    0.9446   -9.0387 O   0  0  0  0  0  0  0  0  0  0  0  0
   26.0747   -0.1395   -9.5195 C   0  0  0  0  0  0  0  0  0  0  0  0
   24.8475   -0.3878   -8.9105 C   0  0  0  0  0  0  0  0  0  0  0  0
   23.6794   -0.3881   -9.6381 C   0  0  0  0  0  0  0  0  0  0  0  0
   23.7083   -0.1358  -11.0177 C   0  0  0  0  0  0  0  0  0  0  0  0
   22.4909   -0.1505  -11.6995 O   0  0  0  0  0  0  0  0  0  0  0  0
   21.3100   -0.3463  -11.0028 C   0  0  0  0  0  0  0  0  0  0  0  0
   20.6664    0.7276  -10.3749 C   0  0  0  0  0  0  0  0  0  0  0  0
   19.5010    0.5511   -9.6868 C   0  0  0  0  0  0  0  0  0  0  0  0
   18.8844    1.5962   -9.0819 F   0  0  0  0  0  0  0  0  0  0  0  0
   18.9043   -0.6783   -9.5754 C   0  0  0  0  0  0  0  0  0  0  0  0
   19.5075   -1.7600  -10.1798 C   0  0  0  0  0  0  0  0  0  0  0  0
   18.8909   -3.0566  -10.0702 C   0  0  0  0  0  0  0  0  0  0  0  0
   18.4124   -4.1082   -9.9820 N   0  0  0  0  0  0  0  0  0  0  0  0
   20.6782   -1.5638  -10.8671 C   0  0  0  0  0  0  0  0  0  0  0  0
   24.9042    0.1106  -11.6432 C   0  0  0  0  0  0  0  0  0  0  0  0
   26.0693    0.1027  -10.8681 C   0  0  0  0  0  0  0  0  0  0  0  0
   27.2432    0.3953  -11.7666 C   0  0  2  0  0  0  0  0  0  0  0  0
   28.2422    1.0959  -11.1482 O   0  0  0  0  0  0  0  0  0  0  0  0
   26.5451    1.2452  -12.8439 C   0  0  0  0  0  0  0  0  0  0  0  0
   25.3016    0.3737  -13.0463 C   0  0  1  0  0  0  0  0  0  0  0  0
   25.7711   -0.8424  -13.5616 F   0  0  0  0  0  0  0  0  0  0  0  0
  1  2  1  1
  2  3  2  0
  2  4  2  0
  2  5  1  6
  5  6  2  0
  6  7  1  0
  7  8  2  0
  8  9  1  0
  9 10  1  0
 10 11  2  0
 11 12  1  0
 12 13  1  0
 12 14  2  0
 14 15  1  0
 15 16  1  0
 16 17  3  0
 15 18  2  0
  8 19  1  0
 19 20  2  0
 20 21  1  0
 21 22  1  1
 23 21  1  1
 23 24  1  0
 24 25  1  1
 20  5  1  0
 18 10  1  0
 24 19  1  0
M  END
$$$$
