_rank19
     RDKit          3D

 25 27  0  0  0  0  0  0  0  0999 V2000
   26.9747    4.0613  -11.5247 C   0  0  0  0  0  0  0  0  0  0  0  0
   27.5531    2.3749  -11.5654 S   0  0  1  0  0  6  0  0  0  0  0  0
   27.8864    2.0650  -13.0047 O   0  0  0  0  0  0  0  0  0  0  0  0
   28.7784    2.2276  -10.7432 O   0  0  0  0  0  0  0  0  0  0  0  0
   26.3248    1.2834  -10.9730 C   0  0  0  0  0  0  0  0  0  0  0  0
   24.9827    1.5341  -11.2460 C   0  0  0  0  0  0  0  0  0  0  0  0
   23.9952    0.6871  -10.7975 C   0  0  0  0  0  0  0  0  0  0  0  0
   24.3295   -0.4525  -10.0510 C   0  0  0  0  0  0  0  0  0  0  0  0
   23.2832   -1.2713   -9.6245 O   0  0  0  0  0  0  0  0  0  0  0  0
   22.0002   -1.0592  -10.1010 C   0  0  0  0  0  0  0  0  0  0  0  0
   21.5790   -1.6471  -11.3005 C   0  0  0  0  0  0  0  0  0  0  0  0
   20.3172   -1.4495  -11.7818 C   0  0  0  0  0  0  0  0  0  0  0  0
   19.9176   -2.0225  -12.9438 F   0  0  0  0  0  0  0  0  0  0  0  0
   19.4031   -0.6705  -11.1203 C   0  0  0  0  0  0  0  0  0  0  0  0
   19.7802   -0.0748   -9.9362 C   0  0  0  0  0  0  0  0  0  0  0  0
   18.8293    0.7458   -9.2319 C   0  0  0  0  0  0  0  0  0  0  0  0
   18.0499    1.3988   -8.6763 N   0  0  0  0  0  0  0  0  0  0  0  0
   21.0522   -0.2845   -9.4678 C   0  0  0  0  0  0  0  0  0  0  0  0
   25.6442   -0.7225   -9.7665 C   0  0  0  0  0  0  0  0  0  0  0  0
   26.6183    0.1628  -10.2412 C   0  0  0  0  0  0  0  0  0  0  0  0
   27.9718   -0.3381   -9.8074 C   0  0  2  0  0  0  0  0  0  0  0  0
   28.9678   -0.0653  -10.7044 O   0  0  0  0  0  0  0  0  0  0  0  0
   27.6821   -1.8483   -9.7319 C   0  0  0  0  0  0  0  0  0  0  0  0
   26.3387   -1.7827   -8.9987 C   0  0  1  0  0  0  0  0  0  0  0  0
   26.6215   -1.2401   -7.7375 F   0  0  0  0  0  0  0  0  0  0  0  0
  1  2  1  1
  2  3  2  0
  2  4  2  0
  2  5  1  1
  5  6  2  0
  6  7  1  0
  7  8  2  0
  8  9  1  0
  9 10  1  0
 10 11  2  0
 11 12  1  0
 12 13  1  0
 12 14  2  0
 14 15  1  0
 15 16  1  0
 16 17  3  0
 15 18  2  0
  8 19  1  0
 19 20  2  0
 20 21  1  0
 21 22  1  6
 23 21  1  1
 23 24  1  0
 24 25  1  1
 20  5  1  0
 18 10  1  0
 24 19  1  0
M  END
$$$$
