_rank10
     RDKit          3D

 25 27  0  0  0  0  0  0  0  0999 V2000
   27.7200    1.8221   -8.5752 C   0  0  0  0  0  0  0  0  0  0  0  0
   27.4277    0.0631   -8.6045 S   0  0  1  0  0  6  0  0  0  0  0  0
   28.6899   -0.5778   -9.1287 O   0  0  0  0  0  0  0  0  0  0  0  0
   27.1627   -0.4407   -7.2353 O   0  0  0  0  0  0  0  0  0  0  0  0
   26.0715   -0.3231   -9.6353 C   0  0  0  0  0  0  0  0  0  0  0  0
   24.9049   -0.8443   -9.0821 C   0  0  0  0  0  0  0  0  0  0  0  0
   23.8191   -1.1509   -9.8701 C   0  0  0  0  0  0  0  0  0  0  0  0
   23.8724   -0.9409  -11.2560 C   0  0  0  0  0  0  0  0  0  0  0  0
   22.7395   -1.2721  -12.0003 O   0  0  0  0  0  0  0  0  0  0  0  0
   21.4790   -1.1173  -11.4478 C   0  0  0  0  0  0  0  0  0  0  0  0
   20.4262   -1.9599  -11.8266 C   0  0  0  0  0  0  0  0  0  0  0  0
   19.1792   -1.8214  -11.2893 C   0  0  0  0  0  0  0  0  0  0  0  0
   18.1657   -2.6414  -11.6616 F   0  0  0  0  0  0  0  0  0  0  0  0
   18.8948   -0.8569  -10.3574 C   0  0  0  0  0  0  0  0  0  0  0  0
   19.9048   -0.0081   -9.9589 C   0  0  0  0  0  0  0  0  0  0  0  0
   19.6189    1.0091   -8.9808 C   0  0  0  0  0  0  0  0  0  0  0  0
   19.3832    1.8398   -8.2080 N   0  0  0  0  0  0  0  0  0  0  0  0
   21.1516   -0.1621  -10.5096 C   0  0  0  0  0  0  0  0  0  0  0  0
   25.0102   -0.4297  -11.8273 C   0  0  0  0  0  0  0  0  0  0  0  0
   26.0920   -0.1303  -10.9917 C   0  0  0  0  0  0  0  0  0  0  0  0
   27.2143    0.4121  -11.8385 C   0  0  2  0  0  0  0  0  0  0  0  0
   27.9742    1.3532  -11.1996 O   0  0  0  0  0  0  0  0  0  0  0  0
   26.4004    1.0335  -12.9881 C   0  0  0  0  0  0  0  0  0  0  0  0
   25.4191   -0.1202  -13.2176 C   0  0  1  0  0  0  0  0  0  0  0  0
   26.1994   -1.2004  -13.6526 F   0  0  0  0  0  0  0  0  0  0  0  0
  1  2  1  1
  2  3  2  0
  2  4  2  0
  2  5  1  6
  5  6  2  0
  6  7  1  0
  7  8  2  0
  8  9  1  0
  9 10  1  0
 10 11  2  0
 11 12  1  0
 12 13  1  0
 12 14  2  0
 14 15  1  0
 15 16  1  0
 16 17  3  0
 15 18  2  0
  8 19  1  0
 19 20  2  0
 20 21  1  0
 21 22  1  1
 23 21  1  1
 23 24  1  0
 24 25  1  1
 20  5  1  0
 18 10  1  0
 24 19  1  0
M  END
$$$$
