_rank6
     RDKit          3D

 25 27  0  0  0  0  0  0  0  0999 V2000
   27.3618   -1.3344   -7.1389 C   0  0  0  0  0  0  0  0  0  0  0  0
   27.5977   -0.3683   -8.6192 S   0  0  1  0  0  6  0  0  0  0  0  0
   27.8772    1.0468   -8.1739 O   0  0  0  0  0  0  0  0  0  0  0  0
   28.7623   -0.8723   -9.3864 O   0  0  0  0  0  0  0  0  0  0  0  0
   26.1733   -0.4223   -9.6286 C   0  0  0  0  0  0  0  0  0  0  0  0
   24.9879   -0.9554   -9.1293 C   0  0  0  0  0  0  0  0  0  0  0  0
   23.8492   -1.0038   -9.9005 C   0  0  0  0  0  0  0  0  0  0  0  0
   23.8662   -0.5121  -11.2141 C   0  0  0  0  0  0  0  0  0  0  0  0
   22.6801   -0.5901  -11.9450 O   0  0  0  0  0  0  0  0  0  0  0  0
   21.4794   -0.8174  -11.2933 C   0  0  0  0  0  0  0  0  0  0  0  0
   20.9190   -2.1006  -11.2586 C   0  0  0  0  0  0  0  0  0  0  0  0
   19.7377   -2.3409  -10.6184 C   0  0  0  0  0  0  0  0  0  0  0  0
   19.2022   -3.5862  -10.5896 F   0  0  0  0  0  0  0  0  0  0  0  0
   19.0437   -1.3454   -9.9805 C   0  0  0  0  0  0  0  0  0  0  0  0
   19.5630   -0.0689   -9.9924 C   0  0  0  0  0  0  0  0  0  0  0  0
   18.8436    0.9855   -9.3261 C   0  0  0  0  0  0  0  0  0  0  0  0
   18.2480    1.8245   -8.7932 N   0  0  0  0  0  0  0  0  0  0  0  0
   20.7511    0.1539  -10.6408 C   0  0  0  0  0  0  0  0  0  0  0  0
   25.0213    0.0173  -11.7316 C   0  0  0  0  0  0  0  0  0  0  0  0
   26.1573    0.0490  -10.9151 C   0  0  0  0  0  0  0  0  0  0  0  0
   27.2890    0.6680  -11.6944 C   0  0  2  0  0  0  0  0  0  0  0  0
   28.1534    1.3915  -10.9195 O   0  0  0  0  0  0  0  0  0  0  0  0
   26.4885    1.5787  -12.6431 C   0  0  0  0  0  0  0  0  0  0  0  0
   25.4009    0.5792  -13.0492 C   0  0  1  0  0  0  0  0  0  0  0  0
   26.0652   -0.4430  -13.7411 F   0  0  0  0  0  0  0  0  0  0  0  0
  1  2  1  1
  2  3  2  0
  2  4  2  0
  2  5  1  6
  5  6  2  0
  6  7  1  0
  7  8  2  0
  8  9  1  0
  9 10  1  0
 10 11  2  0
 11 12  1  0
 12 13  1  0
 12 14  2  0
 14 15  1  0
 15 16  1  0
 16 17  3  0
 15 18  2  0
  8 19  1  0
 19 20  2  0
 20 21  1  0
 21 22  1  1
 23 21  1  1
 23 24  1  0
 24 25  1  6
 20  5  1  0
 18 10  1  0
 24 19  1  0
M  END
$$$$
