_rank1
     RDKit          3D

 25 27  0  0  0  0  0  0  0  0999 V2000
   27.7623   -1.3814   -7.4739 C   0  0  0  0  0  0  0  0  0  0  0  0
   27.6744    0.0014   -8.5967 S   0  0  1  0  0  6  0  0  0  0  0  0
   27.6157    1.2475   -7.7466 O   0  0  0  0  0  0  0  0  0  0  0  0
   28.8868    0.0545   -9.4488 O   0  0  0  0  0  0  0  0  0  0  0  0
   26.2582   -0.1136   -9.6126 C   0  0  0  0  0  0  0  0  0  0  0  0
   25.0900   -0.6838   -9.1138 C   0  0  0  0  0  0  0  0  0  0  0  0
   23.9579   -0.7807   -9.8902 C   0  0  0  0  0  0  0  0  0  0  0  0
   23.9643   -0.3018  -11.2086 C   0  0  0  0  0  0  0  0  0  0  0  0
   22.7857   -0.4295  -11.9447 O   0  0  0  0  0  0  0  0  0  0  0  0
   21.5724   -0.5630  -11.2903 C   0  0  0  0  0  0  0  0  0  0  0  0
   20.8752   -1.7774  -11.3221 C   0  0  0  0  0  0  0  0  0  0  0  0
   19.6798   -1.9252  -10.6803 C   0  0  0  0  0  0  0  0  0  0  0  0
   19.0115   -3.1044  -10.7161 F   0  0  0  0  0  0  0  0  0  0  0  0
   19.1037   -0.8995   -9.9761 C   0  0  0  0  0  0  0  0  0  0  0  0
   19.7594    0.3114   -9.9215 C   0  0  0  0  0  0  0  0  0  0  0  0
   19.1648    1.3966   -9.1852 C   0  0  0  0  0  0  0  0  0  0  0  0
   18.6688    2.2616   -8.5951 N   0  0  0  0  0  0  0  0  0  0  0  0
   20.9597    0.4416  -10.5725 C   0  0  0  0  0  0  0  0  0  0  0  0
   25.1025    0.2635  -11.7257 C   0  0  0  0  0  0  0  0  0  0  0  0
   26.2323    0.3441  -10.9039 C   0  0  0  0  0  0  0  0  0  0  0  0
   27.3452    0.9954  -11.6837 C   0  0  2  0  0  0  0  0  0  0  0  0
   28.1790    1.7571  -10.9118 O   0  0  0  0  0  0  0  0  0  0  0  0
   26.5177    1.8674  -12.6455 C   0  0  0  0  0  0  0  0  0  0  0  0
   25.4688    0.8256  -13.0469 C   0  0  1  0  0  0  0  0  0  0  0  0
   26.1729   -0.1790  -13.7252 F   0  0  0  0  0  0  0  0  0  0  0  0
  1  2  1  1
  2  3  2  0
  2  4  2  0
  2  5  1  6
  5  6  2  0
  6  7  1  0
  7  8  2  0
  8  9  1  0
  9 10  1  0
 10 11  2  0
 11 12  1  0
 12 13  1  0
 12 14  2  0
 14 15  1  0
 15 16  1  0
 16 17  3  0
 15 18  2  0
  8 19  1  0
 19 20  2  0
 20 21  1  0
 21 22  1  1
 23 21  1  1
 23 24  1  0
 24 25  1  6
 20  5  1  0
 18 10  1  0
 24 19  1  0
M  END
$$$$
