_rank17
     RDKit          3D

 25 27  0  0  0  0  0  0  0  0999 V2000
   28.0750    1.3439   -8.3719 C   0  0  0  0  0  0  0  0  0  0  0  0
   27.5369   -0.3451   -8.5672 S   0  0  1  0  0  6  0  0  0  0  0  0
   28.6277   -1.0633   -9.3242 O   0  0  0  0  0  0  0  0  0  0  0  0
   27.3628   -0.9896   -7.2432 O   0  0  0  0  0  0  0  0  0  0  0  0
   26.0304   -0.4181   -9.4483 C   0  0  0  0  0  0  0  0  0  0  0  0
   24.8368   -0.6385   -8.7662 C   0  0  0  0  0  0  0  0  0  0  0  0
   23.6352   -0.6936   -9.4347 C   0  0  0  0  0  0  0  0  0  0  0  0
   23.5949   -0.5272  -10.8269 C   0  0  0  0  0  0  0  0  0  0  0  0
   22.3463   -0.5944  -11.4464 O   0  0  0  0  0  0  0  0  0  0  0  0
   21.1925   -0.4383  -10.6965 C   0  0  0  0  0  0  0  0  0  0  0  0
   20.2594    0.5542  -11.0224 C   0  0  0  0  0  0  0  0  0  0  0  0
   19.1166    0.7189  -10.2944 C   0  0  0  0  0  0  0  0  0  0  0  0
   18.2185    1.6821  -10.6168 F   0  0  0  0  0  0  0  0  0  0  0  0
   18.8252   -0.0734   -9.2141 C   0  0  0  0  0  0  0  0  0  0  0  0
   19.7191   -1.0614   -8.8619 C   0  0  0  0  0  0  0  0  0  0  0  0
   19.4246   -1.9001   -7.7291 C   0  0  0  0  0  0  0  0  0  0  0  0
   19.1923   -2.5908   -6.8282 N   0  0  0  0  0  0  0  0  0  0  0  0
   20.8622   -1.2123   -9.6049 C   0  0  0  0  0  0  0  0  0  0  0  0
   24.7565   -0.3100  -11.5239 C   0  0  0  0  0  0  0  0  0  0  0  0
   25.9574   -0.2601  -10.8074 C   0  0  0  0  0  0  0  0  0  0  0  0
   27.0834   -0.0138  -11.7783 C   0  0  2  0  0  0  0  0  0  0  0  0
   28.1029    0.7321  -11.2535 O   0  0  0  0  0  0  0  0  0  0  0  0
   26.3247    0.7617  -12.8706 C   0  0  0  0  0  0  0  0  0  0  0  0
   25.0829   -0.1311  -12.9582 C   0  0  1  0  0  0  0  0  0  0  0  0
   25.5410   -1.3728  -13.4199 F   0  0  0  0  0  0  0  0  0  0  0  0
  1  2  1  1
  2  3  2  0
  2  4  2  0
  2  5  1  6
  5  6  2  0
  6  7  1  0
  7  8  2  0
  8  9  1  0
  9 10  1  0
 10 11  2  0
 11 12  1  0
 12 13  1  0
 12 14  2  0
 14 15  1  0
 15 16  1  0
 16 17  3  0
 15 18  2  0
  8 19  1  0
 19 20  2  0
 20 21  1  0
 21 22  1  1
 23 21  1  1
 23 24  1  0
 24 25  1  1
 20  5  1  0
 18 10  1  0
 24 19  1  0
M  END
$$$$
