_rank12
     RDKit          3D

 25 27  0  0  0  0  0  0  0  0999 V2000
   28.7757    0.7777   -8.9129 C   0  0  0  0  0  0  0  0  0  0  0  0
   27.7441   -0.6763   -8.9594 S   0  0  1  0  0  6  0  0  0  0  0  0
   28.5611   -1.7675   -9.6079 O   0  0  0  0  0  0  0  0  0  0  0  0
   27.3802   -1.0972   -7.5849 O   0  0  0  0  0  0  0  0  0  0  0  0
   26.2882   -0.3747   -9.8762 C   0  0  0  0  0  0  0  0  0  0  0  0
   25.0442   -0.4878   -9.2612 C   0  0  0  0  0  0  0  0  0  0  0  0
   23.8818   -0.2491   -9.9581 C   0  0  0  0  0  0  0  0  0  0  0  0
   23.9337    0.1150  -11.3118 C   0  0  0  0  0  0  0  0  0  0  0  0
   22.7209    0.3429  -11.9631 O   0  0  0  0  0  0  0  0  0  0  0  0
   21.5376   -0.1021  -11.3976 C   0  0  0  0  0  0  0  0  0  0  0  0
   21.1850   -1.4565  -11.4553 C   0  0  0  0  0  0  0  0  0  0  0  0
   20.0236   -1.9107  -10.9006 C   0  0  0  0  0  0  0  0  0  0  0  0
   19.6899   -3.2234  -10.9610 F   0  0  0  0  0  0  0  0  0  0  0  0
   19.1481   -1.0702  -10.2627 C   0  0  0  0  0  0  0  0  0  0  0  0
   19.4599    0.2699  -10.1852 C   0  0  0  0  0  0  0  0  0  0  0  0
   18.5486    1.1629   -9.5179 C   0  0  0  0  0  0  0  0  0  0  0  0
   17.8290    1.8855   -8.9676 N   0  0  0  0  0  0  0  0  0  0  0  0
   20.6313    0.7083  -10.7483 C   0  0  0  0  0  0  0  0  0  0  0  0
   25.1464    0.2323  -11.9427 C   0  0  0  0  0  0  0  0  0  0  0  0
   26.3050   -0.0181  -11.1991 C   0  0  0  0  0  0  0  0  0  0  0  0
   27.5000    0.1719  -12.0974 C   0  0  2  0  0  0  0  0  0  0  0  0
   28.6004    0.6578  -11.4461 O   0  0  0  0  0  0  0  0  0  0  0  0
   26.9274    1.2075  -13.0822 C   0  0  0  0  0  0  0  0  0  0  0  0
   25.5639    0.5539  -13.3277 C   0  0  1  0  0  0  0  0  0  0  0  0
   25.8377   -0.6695  -13.9548 F   0  0  0  0  0  0  0  0  0  0  0  0
  1  2  1  1
  2  3  2  0
  2  4  2  0
  2  5  1  6
  5  6  2  0
  6  7  1  0
  7  8  2  0
  8  9  1  0
  9 10  1  0
 10 11  2  0
 11 12  1  0
 12 13  1  0
 12 14  2  0
 14 15  1  0
 15 16  1  0
 16 17  3  0
 15 18  2  0
  8 19  1  0
 19 20  2  0
 20 21  1  0
 21 22  1  1
 23 21  1  1
 23 24  1  0
 24 25  1  6
 20  5  1  0
 18 10  1  0
 24 19  1  0
M  END
$$$$
