_rank4
     RDKit          3D

 20 21  0  0  0  0  0  0  0  0999 V2000
   26.7084    1.3718  -14.0123 C   0  0  0  0  0  0  0  0  0  0  0  0
   27.5689    0.9929  -12.8249 C   0  0  0  0  0  0  0  0  0  0  0  0
   26.9982    0.0790  -11.9908 O   0  0  0  0  0  0  0  0  0  0  0  0
   26.1677    0.5286  -11.0267 C   0  0  2  0  0  0  0  0  0  0  0  0
   26.7893    1.1887   -9.8463 C   0  0  0  0  0  0  0  0  0  0  0  0
   26.7292   -0.0340   -8.5514 S   0  0  1  0  0  6  0  0  0  0  0  0
   28.0905   -0.3177   -7.9987 O   0  0  0  0  0  0  0  0  0  0  0  0
   25.7507    0.3394   -7.4823 O   0  0  0  0  0  0  0  0  0  0  0  0
   26.1320   -1.3927   -9.5377 C   0  0  0  0  0  0  0  0  0  0  0  0
   25.3045   -0.6124  -10.5415 C   0  0  1  0  0  0  0  0  0  0  0  0
   24.2317   -0.0656   -9.8367 O   0  0  0  0  0  0  0  0  0  0  0  0
   22.8964   -0.3402   -9.9661 C   0  0  0  0  0  0  0  0  0  0  0  0
   22.4986   -1.4693  -10.6461 C   0  0  0  0  0  0  0  0  0  0  0  0
   21.1416   -1.7665  -10.7886 C   0  0  0  0  0  0  0  0  0  0  0  0
   20.7941   -2.8943  -11.4692 F   0  0  0  0  0  0  0  0  0  0  0  0
   20.2062   -0.9323  -10.2505 C   0  0  0  0  0  0  0  0  0  0  0  0
   20.5963    0.2095   -9.5624 C   0  0  0  0  0  0  0  0  0  0  0  0
   19.6044    1.0972   -8.9899 C   0  0  0  0  0  0  0  0  0  0  0  0
   18.8068    1.7898   -8.5260 N   0  0  0  0  0  0  0  0  0  0  0  0
   21.9264    0.5045   -9.4205 C   0  0  0  0  0  0  0  0  0  0  0  0
  1  2  1  1
  2  3  1  1
  4  3  1  6
  5  4  1  6
  6  5  1  6
  6  7  2  0
  6  8  2  0
  6  9  1  0
  9 10  1  1
 10 11  1  1
 11 12  1  0
 12 13  2  0
 13 14  1  0
 14 15  1  0
 14 16  2  0
 16 17  1  0
 17 18  1  0
 18 19  3  0
 17 20  2  0
 10  4  1  0
 20 12  1  0
M  END
$$$$
