_rank7
     RDKit          3D

 20 21  0  0  0  0  0  0  0  0999 V2000
   27.7690    1.8312  -13.8479 C   0  0  0  0  0  0  0  0  0  0  0  0
   26.6478    0.8682  -13.5168 C   0  0  0  0  0  0  0  0  0  0  0  0
   26.8029    0.2178  -12.3295 O   0  0  0  0  0  0  0  0  0  0  0  0
   26.0411    0.6078  -11.2860 C   0  0  2  0  0  0  0  0  0  0  0  0
   26.7496    1.0636  -10.0589 C   0  0  0  0  0  0  0  0  0  0  0  0
   26.6251   -0.3029   -8.9219 S   0  0  1  0  0  6  0  0  0  0  0  0
   27.9733   -0.7606   -8.4617 O   0  0  0  0  0  0  0  0  0  0  0  0
   25.7125    0.0103   -7.7778 O   0  0  0  0  0  0  0  0  0  0  0  0
   25.8881   -1.4758  -10.0429 C   0  0  0  0  0  0  0  0  0  0  0  0
   25.1000   -0.5129  -10.9106 C   0  0  1  0  0  0  0  0  0  0  0  0
   24.0975    0.0248  -10.1028 O   0  0  0  0  0  0  0  0  0  0  0  0
   22.7747   -0.3234  -10.0380 C   0  0  0  0  0  0  0  0  0  0  0  0
   22.4151   -1.6472  -10.1545 C   0  0  0  0  0  0  0  0  0  0  0  0
   21.0714   -2.0222  -10.0910 C   0  0  0  0  0  0  0  0  0  0  0  0
   20.7618   -3.3435  -10.2110 F   0  0  0  0  0  0  0  0  0  0  0  0
   20.1110   -1.0702   -9.9124 C   0  0  0  0  0  0  0  0  0  0  0  0
   20.4626    0.2683   -9.7936 C   0  0  0  0  0  0  0  0  0  0  0  0
   19.4442    1.2815   -9.6039 C   0  0  0  0  0  0  0  0  0  0  0  0
   18.6272    2.0849   -9.4696 N   0  0  0  0  0  0  0  0  0  0  0  0
   21.7796    0.6401   -9.8554 C   0  0  0  0  0  0  0  0  0  0  0  0
  1  2  1  1
  2  3  1  1
  4  3  1  6
  5  4  1  6
  6  5  1  6
  6  7  2  0
  6  8  2  0
  6  9  1  0
  9 10  1  1
 10 11  1  1
 11 12  1  0
 12 13  2  0
 13 14  1  0
 14 15  1  0
 14 16  2  0
 16 17  1  0
 17 18  1  0
 18 19  3  0
 17 20  2  0
 10  4  1  0
 20 12  1  0
M  END
$$$$
