_rank13
     RDKit          3D

 20 21  0  0  0  0  0  0  0  0999 V2000
   27.8376    2.2397  -13.2082 C   0  0  0  0  0  0  0  0  0  0  0  0
   26.7348    1.2017  -13.2299 C   0  0  0  0  0  0  0  0  0  0  0  0
   26.7224    0.3775  -12.1450 O   0  0  0  0  0  0  0  0  0  0  0  0
   25.9743    0.7375  -11.0809 C   0  0  2  0  0  0  0  0  0  0  0  0
   26.6964    1.0705   -9.8226 C   0  0  0  0  0  0  0  0  0  0  0  0
   26.4887   -0.3605   -8.7811 S   0  0  1  0  0  6  0  0  0  0  0  0
   27.8064   -0.9210   -8.3468 O   0  0  0  0  0  0  0  0  0  0  0  0
   25.5851   -0.0757   -7.6226 O   0  0  0  0  0  0  0  0  0  0  0  0
   25.6985   -1.4135   -9.9821 C   0  0  0  0  0  0  0  0  0  0  0  0
   24.9708   -0.3529  -10.7863 C   0  0  1  0  0  0  0  0  0  0  0  0
   23.9924    0.1832   -9.9486 O   0  0  0  0  0  0  0  0  0  0  0  0
   22.6517   -0.0940   -9.9152 C   0  0  0  0  0  0  0  0  0  0  0  0
   22.2262   -1.3996  -10.0129 C   0  0  0  0  0  0  0  0  0  0  0  0
   20.8633   -1.7024   -9.9808 C   0  0  0  0  0  0  0  0  0  0  0  0
   20.4879   -3.0083  -10.0805 F   0  0  0  0  0  0  0  0  0  0  0  0
   19.9499   -0.6977   -9.8519 C   0  0  0  0  0  0  0  0  0  0  0  0
   20.3681    0.6231   -9.7525 C   0  0  0  0  0  0  0  0  0  0  0  0
   19.3995    1.6922   -9.6156 C   0  0  0  0  0  0  0  0  0  0  0  0
   18.6186    2.5358   -9.5198 N   0  0  0  0  0  0  0  0  0  0  0  0
   21.7041    0.9242   -9.7836 C   0  0  0  0  0  0  0  0  0  0  0  0
  1  2  1  1
  2  3  1  1
  4  3  1  6
  5  4  1  6
  6  5  1  6
  6  7  2  0
  6  8  2  0
  6  9  1  0
  9 10  1  1
 10 11  1  1
 11 12  1  0
 12 13  2  0
 13 14  1  0
 14 15  1  0
 14 16  2  0
 16 17  1  0
 17 18  1  0
 18 19  3  0
 17 20  2  0
 10  4  1  0
 20 12  1  0
M  END
$$$$
