_rank12
     RDKit          3D

 20 21  0  0  0  0  0  0  0  0999 V2000
   27.9814   -1.2688   -7.7744 C   0  0  0  0  0  0  0  0  0  0  0  0
   28.4497   -0.1721   -8.7083 C   0  0  0  0  0  0  0  0  0  0  0  0
   27.4448    0.4527   -9.3839 O   0  0  0  0  0  0  0  0  0  0  0  0
   26.7228   -0.2723  -10.2639 C   0  0  2  0  0  0  0  0  0  0  0  0
   27.2631   -0.4009  -11.6450 C   0  0  0  0  0  0  0  0  0  0  0  0
   26.2907    0.7254  -12.6256 S   0  0  1  0  0  6  0  0  0  0  0  0
   27.1518    1.7251  -13.3314 O   0  0  0  0  0  0  0  0  0  0  0  0
   25.3813   -0.0021  -13.5654 O   0  0  0  0  0  0  0  0  0  0  0  0
   25.3828    1.4778  -11.2895 C   0  0  0  0  0  0  0  0  0  0  0  0
   25.3238    0.2924  -10.3447 C   0  0  1  0  0  0  0  0  0  0  0  0
   24.5122   -0.6649  -10.9539 O   0  0  0  0  0  0  0  0  0  0  0  0
   23.1494   -0.7876  -10.9007 C   0  0  0  0  0  0  0  0  0  0  0  0
   22.3704   -0.1005  -11.8043 C   0  0  0  0  0  0  0  0  0  0  0  0
   20.9790   -0.2126  -11.7661 C   0  0  0  0  0  0  0  0  0  0  0  0
   20.2481    0.4853  -12.6798 F   0  0  0  0  0  0  0  0  0  0  0  0
   20.3898   -1.0079  -10.8275 C   0  0  0  0  0  0  0  0  0  0  0  0
   21.1660   -1.7056   -9.9110 C   0  0  0  0  0  0  0  0  0  0  0  0
   20.5425   -2.5509   -8.9129 C   0  0  0  0  0  0  0  0  0  0  0  0
   20.0325   -3.2121   -8.1168 N   0  0  0  0  0  0  0  0  0  0  0  0
   22.5313   -1.5982   -9.9452 C   0  0  0  0  0  0  0  0  0  0  0  0
  1  2  1  1
  2  3  1  1
  4  3  1  1
  5  4  1  6
  6  5  1  1
  6  7  2  0
  6  8  2  0
  6  9  1  0
  9 10  1  1
 10 11  1  6
 11 12  1  0
 12 13  2  0
 13 14  1  0
 14 15  1  0
 14 16  2  0
 16 17  1  0
 17 18  1  0
 18 19  3  0
 17 20  2  0
 10  4  1  0
 20 12  1  0
M  END
$$$$
