_rank8
     RDKit          3D

 20 21  0  0  0  0  0  0  0  0999 V2000
   27.6462    2.2636  -13.6402 C   0  0  0  0  0  0  0  0  0  0  0  0
   26.4651    1.3732  -13.3140 C   0  0  0  0  0  0  0  0  0  0  0  0
   26.6502    0.5776  -12.2235 O   0  0  0  0  0  0  0  0  0  0  0  0
   25.9070    0.8221  -11.1238 C   0  0  2  0  0  0  0  0  0  0  0  0
   26.6368    1.1410   -9.8662 C   0  0  0  0  0  0  0  0  0  0  0  0
   26.5651   -0.3554   -8.9013 S   0  0  1  0  0  6  0  0  0  0  0  0
   27.9324   -0.8369   -8.5299 O   0  0  0  0  0  0  0  0  0  0  0  0
   25.6752   -0.2025   -7.7078 O   0  0  0  0  0  0  0  0  0  0  0  0
   25.8226   -1.3994  -10.1400 C   0  0  0  0  0  0  0  0  0  0  0  0
   24.9961   -0.3554  -10.8667 C   0  0  1  0  0  0  0  0  0  0  0  0
   24.0039    0.0593   -9.9778 O   0  0  0  0  0  0  0  0  0  0  0  0
   22.6634   -0.2191  -10.0042 C   0  0  0  0  0  0  0  0  0  0  0  0
   22.2432   -1.5148  -10.2038 C   0  0  0  0  0  0  0  0  0  0  0  0
   20.8805   -1.8186  -10.2339 C   0  0  0  0  0  0  0  0  0  0  0  0
   20.5106   -3.1145  -10.4341 F   0  0  0  0  0  0  0  0  0  0  0  0
   19.9618   -0.8248  -10.0644 C   0  0  0  0  0  0  0  0  0  0  0  0
   20.3746    0.4860   -9.8624 C   0  0  0  0  0  0  0  0  0  0  0  0
   19.4005    1.5436   -9.6822 C   0  0  0  0  0  0  0  0  0  0  0  0
   18.6357    2.3931   -9.5262 N   0  0  0  0  0  0  0  0  0  0  0  0
   21.7104    0.7881   -9.8321 C   0  0  0  0  0  0  0  0  0  0  0  0
  1  2  1  1
  2  3  1  1
  4  3  1  6
  5  4  1  6
  6  5  1  6
  6  7  2  0
  6  8  2  0
  6  9  1  0
  9 10  1  1
 10 11  1  1
 11 12  1  0
 12 13  2  0
 13 14  1  0
 14 15  1  0
 14 16  2  0
 16 17  1  0
 17 18  1  0
 18 19  3  0
 17 20  2  0
 10  4  1  0
 20 12  1  0
M  END
$$$$
