_rank1
     RDKit          3D

 20 21  0  0  0  0  0  0  0  0999 V2000
   27.9490   -0.2582   -7.3548 C   0  0  0  0  0  0  0  0  0  0  0  0
   27.6173   -0.6195   -8.7879 C   0  0  0  0  0  0  0  0  0  0  0  0
   26.7120    0.2107   -9.3777 O   0  0  0  0  0  0  0  0  0  0  0  0
   25.9158   -0.2977  -10.3415 C   0  0  2  0  0  0  0  0  0  0  0  0
   26.5271   -0.5254  -11.6794 C   0  0  0  0  0  0  0  0  0  0  0  0
   25.9444    0.8242  -12.6866 S   0  0  1  0  0  6  0  0  0  0  0  0
   27.0794    1.5981  -13.2799 O   0  0  0  0  0  0  0  0  0  0  0  0
   24.9715    0.3603  -13.7249 O   0  0  0  0  0  0  0  0  0  0  0  0
   25.1322    1.7474  -11.3968 C   0  0  0  0  0  0  0  0  0  0  0  0
   24.7069    0.5928  -10.5095 C   0  0  1  0  0  0  0  0  0  0  0  0
   23.7444   -0.1246  -11.2203 O   0  0  0  0  0  0  0  0  0  0  0  0
   22.4269   -0.3277  -10.9070 C   0  0  0  0  0  0  0  0  0  0  0  0
   21.8991   -1.5969  -10.9831 C   0  0  0  0  0  0  0  0  0  0  0  0
   20.5578   -1.8241  -10.6676 C   0  0  0  0  0  0  0  0  0  0  0  0
   20.0785   -3.0963  -10.7569 F   0  0  0  0  0  0  0  0  0  0  0  0
   19.7675   -0.7815  -10.2820 C   0  0  0  0  0  0  0  0  0  0  0  0
   20.2895    0.5032  -10.2018 C   0  0  0  0  0  0  0  0  0  0  0  0
   19.4519    1.6125   -9.7925 C   0  0  0  0  0  0  0  0  0  0  0  0
   18.7912    2.4939   -9.4498 N   0  0  0  0  0  0  0  0  0  0  0  0
   21.6047    0.7301  -10.5104 C   0  0  0  0  0  0  0  0  0  0  0  0
  1  2  1  1
  2  3  1  1
  4  3  1  1
  5  4  1  6
  6  5  1  1
  6  7  2  0
  6  8  2  0
  6  9  1  0
  9 10  1  1
 10 11  1  6
 11 12  1  0
 12 13  2  0
 13 14  1  0
 14 15  1  0
 14 16  2  0
 16 17  1  0
 17 18  1  0
 18 19  3  0
 17 20  2  0
 10  4  1  0
 20 12  1  0
M  END
$$$$
