_rank20
     RDKit          3D

 20 21  0  0  0  0  0  0  0  0999 V2000
   27.5107    1.5935  -13.9071 C   0  0  0  0  0  0  0  0  0  0  0  0
   26.8852    0.2877  -13.4625 C   0  0  0  0  0  0  0  0  0  0  0  0
   25.5281    0.2507  -13.5784 O   0  0  0  0  0  0  0  0  0  0  0  0
   24.8537   -0.6774  -12.8677 C   0  0  2  0  0  0  0  0  0  0  0  0
   24.3844   -1.8860  -13.5989 C   0  0  0  0  0  0  0  0  0  0  0  0
   22.6408   -1.6208  -13.8539 S   0  0  1  0  0  6  0  0  0  0  0  0
   22.2803   -1.6882  -15.3046 O   0  0  0  0  0  0  0  0  0  0  0  0
   21.8122   -2.5478  -13.0209 O   0  0  0  0  0  0  0  0  0  0  0  0
   22.5648    0.0512  -13.2422 C   0  0  0  0  0  0  0  0  0  0  0  0
   23.6648   -0.0263  -12.2005 C   0  0  1  0  0  0  0  0  0  0  0  0
   23.2107   -0.8890  -11.2024 O   0  0  0  0  0  0  0  0  0  0  0  0
   22.6405   -0.5756   -9.9975 C   0  0  0  0  0  0  0  0  0  0  0  0
   21.2912   -0.3098   -9.9340 C   0  0  0  0  0  0  0  0  0  0  0  0
   20.6914    0.0116   -8.7145 C   0  0  0  0  0  0  0  0  0  0  0  0
   19.3532    0.2670   -8.6989 F   0  0  0  0  0  0  0  0  0  0  0  0
   21.4481    0.0621   -7.5808 C   0  0  0  0  0  0  0  0  0  0  0  0
   22.8103   -0.2043   -7.6334 C   0  0  0  0  0  0  0  0  0  0  0  0
   23.6163   -0.1512   -6.4303 C   0  0  0  0  0  0  0  0  0  0  0  0
   24.2630   -0.1261   -5.4753 N   0  0  0  0  0  0  0  0  0  0  0  0
   23.4024   -0.5200   -8.8276 C   0  0  0  0  0  0  0  0  0  0  0  0
  1  2  1  1
  2  3  1  1
  4  3  1  6
  5  4  1  6
  6  5  1  6
  6  7  2  0
  6  8  2  0
  6  9  1  0
  9 10  1  1
 10 11  1  1
 11 12  1  0
 12 13  2  0
 13 14  1  0
 14 15  1  0
 14 16  2  0
 16 17  1  0
 17 18  1  0
 18 19  3  0
 17 20  2  0
 10  4  1  0
 20 12  1  0
M  END
$$$$
