_rank2
     RDKit          3D

 20 21  0  0  0  0  0  0  0  0999 V2000
   27.9464   -0.8881   -7.4763 C   0  0  0  0  0  0  0  0  0  0  0  0
   28.1847   -0.0493   -8.7148 C   0  0  0  0  0  0  0  0  0  0  0  0
   27.0673    0.5630   -9.1978 O   0  0  0  0  0  0  0  0  0  0  0  0
   26.2750   -0.1319  -10.0410 C   0  0  2  0  0  0  0  0  0  0  0  0
   26.8462   -0.4971  -11.3662 C   0  0  0  0  0  0  0  0  0  0  0  0
   26.1150    0.6529  -12.5144 S   0  0  1  0  0  6  0  0  0  0  0  0
   27.1580    1.4189  -13.2656 O   0  0  0  0  0  0  0  0  0  0  0  0
   25.1401   -0.0214  -13.4281 O   0  0  0  0  0  0  0  0  0  0  0  0
   25.2857    1.6833  -11.3202 C   0  0  0  0  0  0  0  0  0  0  0  0
   24.9924    0.6347  -10.2640 C   0  0  1  0  0  0  0  0  0  0  0  0
   24.0619   -0.2438  -10.8199 O   0  0  0  0  0  0  0  0  0  0  0  0
   22.7172   -0.3299  -10.5757 C   0  0  0  0  0  0  0  0  0  0  0  0
   22.0171    0.8028  -10.2261 C   0  0  0  0  0  0  0  0  0  0  0  0
   20.6454    0.7353   -9.9732 C   0  0  0  0  0  0  0  0  0  0  0  0
   19.9933    1.8813   -9.6305 F   0  0  0  0  0  0  0  0  0  0  0  0
   19.9970   -0.4605  -10.0736 C   0  0  0  0  0  0  0  0  0  0  0  0
   20.6934   -1.6096  -10.4256 C   0  0  0  0  0  0  0  0  0  0  0  0
   20.0068   -2.8811  -10.5328 C   0  0  0  0  0  0  0  0  0  0  0  0
   19.4759   -3.9015  -10.6217 N   0  0  0  0  0  0  0  0  0  0  0  0
   22.0390   -1.5475  -10.6745 C   0  0  0  0  0  0  0  0  0  0  0  0
  1  2  1  1
  2  3  1  1
  4  3  1  6
  5  4  1  6
  6  5  1  1
  6  7  2  0
  6  8  2  0
  6  9  1  0
  9 10  1  1
 10 11  1  6
 11 12  1  0
 12 13  2  0
 13 14  1  0
 14 15  1  0
 14 16  2  0
 16 17  1  0
 17 18  1  0
 18 19  3  0
 17 20  2  0
 10  4  1  0
 20 12  1  0
M  END
$$$$
