_rank3
     RDKit          3D

 20 21  0  0  0  0  0  0  0  0999 V2000
   25.9679    0.4255  -13.6134 C   0  0  0  0  0  0  0  0  0  0  0  0
   27.2983    0.9088  -13.0743 C   0  0  0  0  0  0  0  0  0  0  0  0
   27.5278    0.5756  -11.7732 O   0  0  0  0  0  0  0  0  0  0  0  0
   26.6100    0.9374  -10.8523 C   0  0  2  0  0  0  0  0  0  0  0  0
   27.1132    1.3295   -9.5074 C   0  0  0  0  0  0  0  0  0  0  0  0
   26.7873   -0.0793   -8.4660 S   0  0  1  0  0  6  0  0  0  0  0  0
   28.0362   -0.5810   -7.8120 O   0  0  0  0  0  0  0  0  0  0  0  0
   25.7034    0.2045   -7.4738 O   0  0  0  0  0  0  0  0  0  0  0  0
   26.2298   -1.1916   -9.7418 C   0  0  0  0  0  0  0  0  0  0  0  0
   25.6065   -0.1794  -10.6842 C   0  0  1  0  0  0  0  0  0  0  0  0
   24.4918    0.3442  -10.0286 O   0  0  0  0  0  0  0  0  0  0  0  0
   23.1870   -0.0650  -10.1034 C   0  0  0  0  0  0  0  0  0  0  0  0
   22.8524   -1.1191  -10.9232 C   0  0  0  0  0  0  0  0  0  0  0  0
   21.5274   -1.5509  -11.0129 C   0  0  0  0  0  0  0  0  0  0  0  0
   21.2423   -2.5979  -11.8369 F   0  0  0  0  0  0  0  0  0  0  0  0
   20.5605   -0.9237  -10.2835 C   0  0  0  0  0  0  0  0  0  0  0  0
   20.8869    0.1408   -9.4532 C   0  0  0  0  0  0  0  0  0  0  0  0
   19.8614    0.8088   -8.6773 C   0  0  0  0  0  0  0  0  0  0  0  0
   19.0553    1.3389   -8.0448 N   0  0  0  0  0  0  0  0  0  0  0  0
   22.1855    0.5674   -9.3624 C   0  0  0  0  0  0  0  0  0  0  0  0
  1  2  1  1
  2  3  1  1
  4  3  1  6
  5  4  1  6
  6  5  1  6
  6  7  2  0
  6  8  2  0
  6  9  1  0
  9 10  1  1
 10 11  1  1
 11 12  1  0
 12 13  2  0
 13 14  1  0
 14 15  1  0
 14 16  2  0
 16 17  1  0
 17 18  1  0
 18 19  3  0
 17 20  2  0
 10  4  1  0
 20 12  1  0
M  END
$$$$
