_rank10
     RDKit          3D

 20 21  0  0  0  0  0  0  0  0999 V2000
   28.1728    1.2126  -13.8600 C   0  0  0  0  0  0  0  0  0  0  0  0
   26.8057    1.2027  -13.2081 C   0  0  0  0  0  0  0  0  0  0  0  0
   26.7171    0.4021  -12.1090 O   0  0  0  0  0  0  0  0  0  0  0  0
   25.9067    0.7908  -11.1022 C   0  0  2  0  0  0  0  0  0  0  0  0
   26.5564    1.2977   -9.8626 C   0  0  0  0  0  0  0  0  0  0  0  0
   26.4355   -0.0457   -8.6980 S   0  0  1  0  0  6  0  0  0  0  0  0
   27.7805   -0.4482   -8.1805 O   0  0  0  0  0  0  0  0  0  0  0  0
   25.4735    0.2636   -7.5941 O   0  0  0  0  0  0  0  0  0  0  0  0
   25.7765   -1.2676   -9.8153 C   0  0  0  0  0  0  0  0  0  0  0  0
   24.9892   -0.3513  -10.7327 C   0  0  1  0  0  0  0  0  0  0  0  0
   23.9421    0.1717   -9.9734 O   0  0  0  0  0  0  0  0  0  0  0  0
   22.6152   -0.1654  -10.0024 C   0  0  0  0  0  0  0  0  0  0  0  0
   22.2485   -1.4501  -10.3349 C   0  0  0  0  0  0  0  0  0  0  0  0
   20.9005   -1.8131  -10.3700 C   0  0  0  0  0  0  0  0  0  0  0  0
   20.5841   -3.0954  -10.7041 F   0  0  0  0  0  0  0  0  0  0  0  0
   19.9429   -0.8884  -10.0728 C   0  0  0  0  0  0  0  0  0  0  0  0
   20.3015    0.4106   -9.7360 C   0  0  0  0  0  0  0  0  0  0  0  0
   19.2860    1.3947   -9.4200 C   0  0  0  0  0  0  0  0  0  0  0  0
   18.4848    2.1804   -9.1521 N   0  0  0  0  0  0  0  0  0  0  0  0
   21.6228    0.7706   -9.7005 C   0  0  0  0  0  0  0  0  0  0  0  0
  1  2  1  1
  2  3  1  1
  4  3  1  6
  5  4  1  6
  6  5  1  6
  6  7  2  0
  6  8  2  0
  6  9  1  0
  9 10  1  1
 10 11  1  1
 11 12  1  0
 12 13  2  0
 13 14  1  0
 14 15  1  0
 14 16  2  0
 16 17  1  0
 17 18  1  0
 18 19  3  0
 17 20  2  0
 10  4  1  0
 20 12  1  0
M  END
$$$$
