_rank9
     RDKit          3D

 20 21  0  0  0  0  0  0  0  0999 V2000
   26.5721    3.0114  -12.6521 C   0  0  0  0  0  0  0  0  0  0  0  0
   27.0627    1.5970  -12.8827 C   0  0  0  0  0  0  0  0  0  0  0  0
   27.3083    0.8979  -11.7393 O   0  0  0  0  0  0  0  0  0  0  0  0
   26.4253    1.0070  -10.7245 C   0  0  2  0  0  0  0  0  0  0  0  0
   26.9805    1.1976   -9.3567 C   0  0  0  0  0  0  0  0  0  0  0  0
   26.8341   -0.3971   -8.5750 S   0  0  1  0  0  6  0  0  0  0  0  0
   28.1579   -0.8932   -8.0845 O   0  0  0  0  0  0  0  0  0  0  0  0
   25.7965   -0.3918   -7.4965 O   0  0  0  0  0  0  0  0  0  0  0  0
   26.2864   -1.3105  -10.0037 C   0  0  0  0  0  0  0  0  0  0  0  0
   25.5261   -0.2070  -10.7145 C   0  0  1  0  0  0  0  0  0  0  0  0
   24.4174    0.0902   -9.9214 O   0  0  0  0  0  0  0  0  0  0  0  0
   23.1418   -0.3981  -10.0196 C   0  0  0  0  0  0  0  0  0  0  0  0
   22.9093   -1.5488  -10.7388 C   0  0  0  0  0  0  0  0  0  0  0  0
   21.6155   -2.0624  -10.8505 C   0  0  0  0  0  0  0  0  0  0  0  0
   21.4322   -3.2035  -11.5720 F   0  0  0  0  0  0  0  0  0  0  0  0
   20.5774   -1.4191  -10.2431 C   0  0  0  0  0  0  0  0  0  0  0  0
   20.8006   -0.2575   -9.5151 C   0  0  0  0  0  0  0  0  0  0  0  0
   19.6994    0.4277   -8.8689 C   0  0  0  0  0  0  0  0  0  0  0  0
   18.8246    0.9625   -8.3401 N   0  0  0  0  0  0  0  0  0  0  0  0
   22.0683    0.2495   -9.4031 C   0  0  0  0  0  0  0  0  0  0  0  0
  1  2  1  1
  2  3  1  1
  4  3  1  6
  5  4  1  6
  6  5  1  6
  6  7  2  0
  6  8  2  0
  6  9  1  0
  9 10  1  1
 10 11  1  1
 11 12  1  0
 12 13  2  0
 13 14  1  0
 14 15  1  0
 14 16  2  0
 16 17  1  0
 17 18  1  0
 18 19  3  0
 17 20  2  0
 10  4  1  0
 20 12  1  0
M  END
$$$$
