_rank11
     RDKit          3D

 20 21  0  0  0  0  0  0  0  0999 V2000
   27.6210   -2.0942   -8.6571 C   0  0  0  0  0  0  0  0  0  0  0  0
   28.2057   -0.7046   -8.5114 C   0  0  0  0  0  0  0  0  0  0  0  0
   27.4828    0.2726   -9.1272 O   0  0  0  0  0  0  0  0  0  0  0  0
   26.7376   -0.0672  -10.1999 C   0  0  2  0  0  0  0  0  0  0  0  0
   27.2414    0.3478  -11.5377 C   0  0  0  0  0  0  0  0  0  0  0  0
   26.2442    1.7543  -11.9882 S   0  0  1  0  0  6  0  0  0  0  0  0
   27.0870    2.9563  -12.2782 O   0  0  0  0  0  0  0  0  0  0  0  0
   25.3100    1.4332  -13.1125 O   0  0  0  0  0  0  0  0  0  0  0  0
   25.3720    1.9292  -10.4441 C   0  0  0  0  0  0  0  0  0  0  0  0
   25.3373    0.4719  -10.0240 C   0  0  1  0  0  0  0  0  0  0  0  0
   24.5095   -0.1870  -10.9334 O   0  0  0  0  0  0  0  0  0  0  0  0
   23.1714   -0.4585  -10.8285 C   0  0  0  0  0  0  0  0  0  0  0  0
   22.2737    0.5809  -10.7314 C   0  0  0  0  0  0  0  0  0  0  0  0
   20.9053    0.3244  -10.6236 C   0  0  0  0  0  0  0  0  0  0  0  0
   20.0537    1.3837  -10.5299 F   0  0  0  0  0  0  0  0  0  0  0  0
   20.4570   -0.9637  -10.6147 C   0  0  0  0  0  0  0  0  0  0  0  0
   21.3537   -2.0200  -10.7122 C   0  0  0  0  0  0  0  0  0  0  0  0
   20.8799   -3.3894  -10.7029 C   0  0  0  0  0  0  0  0  0  0  0  0
   20.4895   -4.4748  -10.6841 N   0  0  0  0  0  0  0  0  0  0  0  0
   22.6969   -1.7725  -10.8181 C   0  0  0  0  0  0  0  0  0  0  0  0
  1  2  1  1
  2  3  1  1
  4  3  1  1
  5  4  1  6
  6  5  1  1
  6  7  2  0
  6  8  2  0
  6  9  1  0
  9 10  1  1
 10 11  1  6
 11 12  1  0
 12 13  2  0
 13 14  1  0
 14 15  1  0
 14 16  2  0
 16 17  1  0
 17 18  1  0
 18 19  3  0
 17 20  2  0
 10  4  1  0
 20 12  1  0
M  END
$$$$
