_rank3
     RDKit          3D

 16 17  0  0  0  0  0  0  0  0999 V2000
   28.1362    0.2996   -8.2911 C   0  0  0  0  0  0  0  0  0  0  0  0
   26.9425    0.0122   -9.1372 C   0  0  0  0  0  0  0  0  0  0  0  0
   25.7746   -0.4821   -8.5949 C   0  0  0  0  0  0  0  0  0  0  0  0
   24.7013   -0.7296   -9.4258 C   0  0  0  0  0  0  0  0  0  0  0  0
   24.8014   -0.4839  -10.7792 C   0  0  0  0  0  0  0  0  0  0  0  0
   23.7329   -0.7225  -11.6568 O   0  0  0  0  0  0  0  0  0  0  0  0
   22.4344   -0.6528  -11.1454 C   0  0  0  0  0  0  0  0  0  0  0  0
   22.0219    0.4600  -10.4227 C   0  0  0  0  0  0  0  0  0  0  0  0
   20.7538    0.5611   -9.9063 C   0  0  0  0  0  0  0  0  0  0  0  0
   19.8663   -0.4653  -10.1085 C   0  0  0  0  0  0  0  0  0  0  0  0
   20.2427   -1.5786  -10.8183 C   0  0  0  0  0  0  0  0  0  0  0  0
   19.4015   -2.6204  -11.0453 F   0  0  0  0  0  0  0  0  0  0  0  0
   21.5306   -1.6773  -11.3407 C   0  0  0  0  0  0  0  0  0  0  0  0
   25.9650    0.0150  -11.3609 C   0  0  0  0  0  0  0  0  0  0  0  0
   26.0509    0.2619  -12.7550 N   0  0  0  0  0  0  0  0  0  0  0  0
   27.0211    0.2515  -10.4980 C   0  0  0  0  0  0  0  0  0  0  0  0
  1  2  1  6
  2  3  2  0
  3  4  1  0
  4  5  2  0
  5  6  1  0
  6  7  1  0
  7  8  2  0
  8  9  1  0
  9 10  2  0
 10 11  1  0
 11 12  1  0
 11 13  2  0
  5 14  1  0
 14 15  1  0
 14 16  2  0
 16  2  1  0
 13  7  1  0
M  END
$$$$
