_rank10
     RDKit          3D

 16 17  0  0  0  0  0  0  0  0999 V2000
   28.3574   -0.6243   -8.5358 C   0  0  0  0  0  0  0  0  0  0  0  0
   27.0969   -0.6182   -9.3324 C   0  0  0  0  0  0  0  0  0  0  0  0
   25.9738   -1.3000   -8.9127 C   0  0  0  0  0  0  0  0  0  0  0  0
   24.8347   -1.2594   -9.6903 C   0  0  0  0  0  0  0  0  0  0  0  0
   24.8260   -0.5450  -10.8699 C   0  0  0  0  0  0  0  0  0  0  0  0
   23.6881   -0.4793  -11.6882 O   0  0  0  0  0  0  0  0  0  0  0  0
   22.4400   -0.6912  -11.0964 C   0  0  0  0  0  0  0  0  0  0  0  0
   22.3325   -1.4396   -9.9306 C   0  0  0  0  0  0  0  0  0  0  0  0
   21.1225   -1.6672   -9.3231 C   0  0  0  0  0  0  0  0  0  0  0  0
   19.9850   -1.1414   -9.8816 C   0  0  0  0  0  0  0  0  0  0  0  0
   20.0573   -0.3974  -11.0331 C   0  0  0  0  0  0  0  0  0  0  0  0
   18.9611    0.1440  -11.6243 F   0  0  0  0  0  0  0  0  0  0  0  0
   21.2873   -0.1687  -11.6465 C   0  0  0  0  0  0  0  0  0  0  0  0
   25.9417    0.1551  -11.3243 C   0  0  0  0  0  0  0  0  0  0  0  0
   25.9154    0.8849  -12.5402 N   0  0  0  0  0  0  0  0  0  0  0  0
   27.0660    0.0923  -10.5195 C   0  0  0  0  0  0  0  0  0  0  0  0
  1  2  1  6
  2  3  2  0
  3  4  1  0
  4  5  2  0
  5  6  1  0
  6  7  1  0
  7  8  2  0
  8  9  1  0
  9 10  2  0
 10 11  1  0
 11 12  1  0
 11 13  2  0
  5 14  1  0
 14 15  1  0
 14 16  2  0
 16  2  1  0
 13  7  1  0
M  END
$$$$
