_rank20
     RDKit          3D

 16 17  0  0  0  0  0  0  0  0999 V2000
   27.1657    0.2677   -9.7605 C   0  0  0  0  0  0  0  0  0  0  0  0
   25.7347   -0.1442   -9.6825 C   0  0  0  0  0  0  0  0  0  0  0  0
   24.7154    0.7849   -9.6626 C   0  0  0  0  0  0  0  0  0  0  0  0
   23.4093    0.3464   -9.5895 C   0  0  0  0  0  0  0  0  0  0  0  0
   23.1335   -1.0039   -9.5375 C   0  0  0  0  0  0  0  0  0  0  0  0
   21.8192   -1.4895   -9.4627 O   0  0  0  0  0  0  0  0  0  0  0  0
   20.8026   -0.7263  -10.0428 C   0  0  0  0  0  0  0  0  0  0  0  0
   20.1285    0.2317   -9.2953 C   0  0  0  0  0  0  0  0  0  0  0  0
   19.1251    0.9987   -9.8336 C   0  0  0  0  0  0  0  0  0  0  0  0
   18.7761    0.8158  -11.1477 C   0  0  0  0  0  0  0  0  0  0  0  0
   19.4227   -0.1225  -11.9134 C   0  0  0  0  0  0  0  0  0  0  0  0
   19.1141   -0.3412  -13.2178 F   0  0  0  0  0  0  0  0  0  0  0  0
   20.4405   -0.8989  -11.3632 C   0  0  0  0  0  0  0  0  0  0  0  0
   24.1374   -1.9698   -9.5556 C   0  0  0  0  0  0  0  0  0  0  0  0
   23.8360   -3.3547   -9.5014 N   0  0  0  0  0  0  0  0  0  0  0  0
   25.4352   -1.4942   -9.6294 C   0  0  0  0  0  0  0  0  0  0  0  0
  1  2  1  6
  2  3  2  0
  3  4  1  0
  4  5  2  0
  5  6  1  0
  6  7  1  0
  7  8  2  0
  8  9  1  0
  9 10  2  0
 10 11  1  0
 11 12  1  0
 11 13  2  0
  5 14  1  0
 14 15  1  0
 14 16  2  0
 16  2  1  0
 13  7  1  0
M  END
$$$$
