_rank5
     RDKit          3D

 16 17  0  0  0  0  0  0  0  0999 V2000
   28.2569   -0.8041   -8.3514 C   0  0  0  0  0  0  0  0  0  0  0  0
   26.9977   -0.5419   -9.1058 C   0  0  0  0  0  0  0  0  0  0  0  0
   25.7976   -0.3339   -8.4585 C   0  0  0  0  0  0  0  0  0  0  0  0
   24.6638   -0.0957   -9.2077 C   0  0  0  0  0  0  0  0  0  0  0  0
   24.7362   -0.0672  -10.5846 C   0  0  0  0  0  0  0  0  0  0  0  0
   23.6063    0.1717  -11.3814 O   0  0  0  0  0  0  0  0  0  0  0  0
   22.3725   -0.3064  -10.9324 C   0  0  0  0  0  0  0  0  0  0  0  0
   22.2218   -1.6421  -10.5800 C   0  0  0  0  0  0  0  0  0  0  0  0
   21.0242   -2.1449  -10.1352 C   0  0  0  0  0  0  0  0  0  0  0  0
   19.9434   -1.3059  -10.0348 C   0  0  0  0  0  0  0  0  0  0  0  0
   20.0592    0.0190  -10.3751 C   0  0  0  0  0  0  0  0  0  0  0  0
   19.0196    0.8890  -10.2932 F   0  0  0  0  0  0  0  0  0  0  0  0
   21.2765    0.5254  -10.8262 C   0  0  0  0  0  0  0  0  0  0  0  0
   25.9309   -0.2729  -11.2714 C   0  0  0  0  0  0  0  0  0  0  0  0
   25.9876   -0.2402  -12.6882 N   0  0  0  0  0  0  0  0  0  0  0  0
   27.0476   -0.5090  -10.4884 C   0  0  0  0  0  0  0  0  0  0  0  0
  1  2  1  6
  2  3  2  0
  3  4  1  0
  4  5  2  0
  5  6  1  0
  6  7  1  0
  7  8  2  0
  8  9  1  0
  9 10  2  0
 10 11  1  0
 11 12  1  0
 11 13  2  0
  5 14  1  0
 14 15  1  0
 14 16  2  0
 16  2  1  0
 13  7  1  0
M  END
$$$$
