_rank11
     RDKit          3D

 16 17  0  0  0  0  0  0  0  0999 V2000
   28.5074   -1.0896   -8.7111 C   0  0  0  0  0  0  0  0  0  0  0  0
   27.1381   -0.6797   -9.1361 C   0  0  0  0  0  0  0  0  0  0  0  0
   26.1384   -0.4378   -8.2171 C   0  0  0  0  0  0  0  0  0  0  0  0
   24.8899   -0.0611   -8.6675 C   0  0  0  0  0  0  0  0  0  0  0  0
   24.6513    0.0699  -10.0195 C   0  0  0  0  0  0  0  0  0  0  0  0
   23.3959    0.4507  -10.5171 O   0  0  0  0  0  0  0  0  0  0  0  0
   22.3770   -0.5055  -10.5314 C   0  0  0  0  0  0  0  0  0  0  0  0
   22.6593   -1.8293  -10.8455 C   0  0  0  0  0  0  0  0  0  0  0  0
   21.6827   -2.7940  -10.8688 C   0  0  0  0  0  0  0  0  0  0  0  0
   20.3897   -2.4430  -10.5738 C   0  0  0  0  0  0  0  0  0  0  0  0
   20.0778   -1.1435  -10.2595 C   0  0  0  0  0  0  0  0  0  0  0  0
   18.8140   -0.7463   -9.9604 F   0  0  0  0  0  0  0  0  0  0  0  0
   21.0719   -0.1674  -10.2369 C   0  0  0  0  0  0  0  0  0  0  0  0
   25.6371   -0.1662  -10.9755 C   0  0  0  0  0  0  0  0  0  0  0  0
   25.3745   -0.0267  -12.3623 N   0  0  0  0  0  0  0  0  0  0  0  0
   26.8768   -0.5421  -10.4881 C   0  0  0  0  0  0  0  0  0  0  0  0
  1  2  1  6
  2  3  2  0
  3  4  1  0
  4  5  2  0
  5  6  1  0
  6  7  1  0
  7  8  2  0
  8  9  1  0
  9 10  2  0
 10 11  1  0
 11 12  1  0
 11 13  2  0
  5 14  1  0
 14 15  1  0
 14 16  2  0
 16  2  1  0
 13  7  1  0
M  END
$$$$
