_rank7
     RDKit          3D

 16 17  0  0  0  0  0  0  0  0999 V2000
   28.1275   -0.7049   -7.9737 C   0  0  0  0  0  0  0  0  0  0  0  0
   26.8990   -0.6222   -8.8149 C   0  0  0  0  0  0  0  0  0  0  0  0
   25.6440   -0.5177   -8.2525 C   0  0  0  0  0  0  0  0  0  0  0  0
   24.5421   -0.4446   -9.0798 C   0  0  0  0  0  0  0  0  0  0  0  0
   24.7005   -0.4760  -10.4495 C   0  0  0  0  0  0  0  0  0  0  0  0
   23.6057   -0.4040  -11.3240 O   0  0  0  0  0  0  0  0  0  0  0  0
   22.3236   -0.5363  -10.7841 C   0  0  0  0  0  0  0  0  0  0  0  0
   21.6529    0.5735  -10.2847 C   0  0  0  0  0  0  0  0  0  0  0  0
   20.3929    0.4792   -9.7476 C   0  0  0  0  0  0  0  0  0  0  0  0
   19.7761   -0.7454   -9.7016 C   0  0  0  0  0  0  0  0  0  0  0  0
   20.4118   -1.8613  -10.1867 C   0  0  0  0  0  0  0  0  0  0  0  0
   19.8438   -3.0947  -10.1639 F   0  0  0  0  0  0  0  0  0  0  0  0
   21.6905   -1.7613  -10.7311 C   0  0  0  0  0  0  0  0  0  0  0  0
   25.9526   -0.5808  -11.0516 C   0  0  0  0  0  0  0  0  0  0  0  0
   26.0975   -0.6117  -12.4622 N   0  0  0  0  0  0  0  0  0  0  0  0
   27.0349   -0.6520  -10.1918 C   0  0  0  0  0  0  0  0  0  0  0  0
  1  2  1  6
  2  3  2  0
  3  4  1  0
  4  5  2  0
  5  6  1  0
  6  7  1  0
  7  8  2  0
  8  9  1  0
  9 10  2  0
 10 11  1  0
 11 12  1  0
 11 13  2  0
  5 14  1  0
 14 15  1  0
 14 16  2  0
 16  2  1  0
 13  7  1  0
M  END
$$$$
