_rank12
     RDKit          3D

 24 27  0  0  0  0  0  0  0  0999 V2000
   20.7841   -3.1395  -10.8059 F   0  0  0  0  0  0  0  0  0  0  0  0
   20.3271   -1.8716  -10.6139 C   0  0  0  0  0  0  0  0  0  0  0  0
   18.9779   -1.7734  -10.2920 C   0  0  0  0  0  0  0  0  0  0  0  0
   17.9686   -3.2151  -10.1515 Cl  0  0  0  0  0  0  0  0  0  0  0  0
   18.4135   -0.5371  -10.0776 C   0  0  0  0  0  0  0  0  0  0  0  0
   19.2052    0.6023  -10.1864 C   0  0  0  0  0  0  0  0  0  0  0  0
   20.5400    0.4943  -10.5057 C   0  0  0  0  0  0  0  0  0  0  0  0
   21.1030   -0.7577  -10.7213 C   0  0  0  0  0  0  0  0  0  0  0  0
   22.5304   -0.8991  -11.0865 C   0  0  2  0  0  0  0  0  0  0  0  0
   23.3711   -0.5326   -9.8953 C   0  0  0  0  0  0  0  0  0  0  0  0
   24.7282   -0.0209  -10.1639 C   0  0  1  0  0  0  0  0  0  0  0  0
   25.8151   -0.4266   -9.2845 C   0  0  0  0  0  0  0  0  0  0  0  0
   25.6757   -0.8158   -7.9914 C   0  0  0  0  0  0  0  0  0  0  0  0
   26.7967   -1.1920   -7.2438 C   0  0  0  0  0  0  0  0  0  0  0  0
   28.0297   -1.1648   -7.8223 C   0  0  0  0  0  0  0  0  0  0  0  0
   28.1831   -0.7738   -9.1272 C   0  0  0  0  0  0  0  0  0  0  0  0
   29.9340   -0.7430   -9.9198 Br  0  0  0  0  0  0  0  0  0  0  0  0
   27.0900   -0.4101   -9.8463 C   0  0  0  0  0  0  0  0  0  0  0  0
   25.1169   -0.2605  -11.5544 N   0  0  0  0  0  0  0  0  0  0  0  0
   24.1428    0.0636  -12.5448 C   0  0  0  0  0  0  0  0  0  0  0  0
   24.2629    0.6712  -13.7694 N   0  0  0  0  0  0  0  0  0  0  0  0
   23.0354    0.7192  -14.2504 N   0  0  0  0  0  0  0  0  0  0  0  0
   22.2036    0.1780  -13.3867 N   0  0  0  0  0  0  0  0  0  0  0  0
   22.8601   -0.2416  -12.3122 N   0  0  0  0  0  0  0  0  0  0  0  0
  1  2  1  0
  2  3  2  0
  3  4  1  0
  3  5  1  0
  5  6  2  0
  6  7  1  0
  7  8  2  0
  9  8  1  1
 10  9  1  1
 10 11  1  0
 11 12  1  1
 12 13  2  0
 13 14  1  0
 14 15  2  0
 15 16  1  0
 16 17  1  0
 16 18  2  0
 11 19  1  0
 19 20  1  0
 20 21  2  0
 21 22  1  0
 22 23  2  0
 23 24  1  0
  8  2  1  0
 24  9  1  0
 18 12  1  0
 24 20  1  0
M  END
$$$$
