_rank6
     RDKit          3D

 24 27  0  0  0  0  0  0  0  0999 V2000
   26.5371    1.5344   -8.3252 F   0  0  0  0  0  0  0  0  0  0  0  0
   26.7911    0.2006   -8.4245 C   0  0  0  0  0  0  0  0  0  0  0  0
   27.8290   -0.2632   -7.6237 C   0  0  0  0  0  0  0  0  0  0  0  0
   28.7243    0.8333   -6.5687 Cl  0  0  0  0  0  0  0  0  0  0  0  0
   28.1690   -1.5962   -7.6478 C   0  0  0  0  0  0  0  0  0  0  0  0
   27.4655   -2.4646   -8.4771 C   0  0  0  0  0  0  0  0  0  0  0  0
   26.4396   -1.9953   -9.2662 C   0  0  0  0  0  0  0  0  0  0  0  0
   26.1022   -0.6476   -9.2369 C   0  0  0  0  0  0  0  0  0  0  0  0
   25.0175   -0.1146  -10.0913 C   0  0  2  0  0  0  0  0  0  0  0  0
   23.8114   -1.0006   -9.9475 C   0  0  0  0  0  0  0  0  0  0  0  0
   22.8750   -1.0489  -11.0861 C   0  0  1  0  0  0  0  0  0  0  0  0
   21.4460   -1.1055  -10.8141 C   0  0  0  0  0  0  0  0  0  0  0  0
   20.6767   -2.2220  -10.8834 C   0  0  0  0  0  0  0  0  0  0  0  0
   19.3102   -2.1556  -10.5917 C   0  0  0  0  0  0  0  0  0  0  0  0
   18.7562   -0.9624  -10.2378 C   0  0  0  0  0  0  0  0  0  0  0  0
   19.5226    0.1717  -10.1643 C   0  0  0  0  0  0  0  0  0  0  0  0
   18.7166    1.8434   -9.6637 Br  0  0  0  0  0  0  0  0  0  0  0  0
   20.8485    0.0990  -10.4489 C   0  0  0  0  0  0  0  0  0  0  0  0
   23.1435    0.0313  -12.0364 N   0  0  0  0  0  0  0  0  0  0  0  0
   24.5108    0.2347  -12.3879 C   0  0  0  0  0  0  0  0  0  0  0  0
   25.1052    0.5112  -13.5936 N   0  0  0  0  0  0  0  0  0  0  0  0
   26.3955    0.5892  -13.3301 N   0  0  0  0  0  0  0  0  0  0  0  0
   26.5956    0.3770  -12.0472 N   0  0  0  0  0  0  0  0  0  0  0  0
   25.4422    0.1530  -11.4297 N   0  0  0  0  0  0  0  0  0  0  0  0
  1  2  1  0
  2  3  2  0
  3  4  1  0
  3  5  1  0
  5  6  2  0
  6  7  1  0
  7  8  2  0
  9  8  1  1
 10  9  1  1
 10 11  1  0
 11 12  1  1
 12 13  2  0
 13 14  1  0
 14 15  2  0
 15 16  1  0
 16 17  1  0
 16 18  2  0
 11 19  1  0
 19 20  1  0
 20 21  2  0
 21 22  1  0
 22 23  2  0
 23 24  1  0
  8  2  1  0
 24  9  1  0
 18 12  1  0
 24 20  1  0
M  END
$$$$
