_rank19
     RDKit          3D

 24 27  0  0  0  0  0  0  0  0999 V2000
   20.9361   -2.8217   -9.6453 F   0  0  0  0  0  0  0  0  0  0  0  0
   20.4176   -1.5770   -9.8332 C   0  0  0  0  0  0  0  0  0  0  0  0
   19.2076   -1.3390   -9.1905 C   0  0  0  0  0  0  0  0  0  0  0  0
   18.4364   -2.5888   -8.2107 Cl  0  0  0  0  0  0  0  0  0  0  0  0
   18.5962   -0.1128   -9.3147 C   0  0  0  0  0  0  0  0  0  0  0  0
   19.2007    0.8760  -10.0852 C   0  0  0  0  0  0  0  0  0  0  0  0
   20.3987    0.6302  -10.7176 C   0  0  0  0  0  0  0  0  0  0  0  0
   21.0101   -0.6109  -10.5879 C   0  0  0  0  0  0  0  0  0  0  0  0
   22.2874   -0.9069  -11.2749 C   0  0  2  0  0  0  0  0  0  0  0  0
   23.4228   -0.5016  -10.3767 C   0  0  0  0  0  0  0  0  0  0  0  0
   24.6947   -0.1348  -11.0273 C   0  0  1  0  0  0  0  0  0  0  0  0
   25.9436   -0.5459  -10.4024 C   0  0  0  0  0  0  0  0  0  0  0  0
   26.9379   -1.2382  -11.0150 C   0  0  0  0  0  0  0  0  0  0  0  0
   28.1004   -1.5724  -10.3123 C   0  0  0  0  0  0  0  0  0  0  0  0
   28.2281   -1.1986   -9.0085 C   0  0  0  0  0  0  0  0  0  0  0  0
   27.2310   -0.4993   -8.3792 C   0  0  0  0  0  0  0  0  0  0  0  0
   27.4350    0.0152   -6.5385 Br  0  0  0  0  0  0  0  0  0  0  0  0
   26.1056   -0.1786   -9.0682 C   0  0  0  0  0  0  0  0  0  0  0  0
   24.7031   -0.5375  -12.4343 N   0  0  0  0  0  0  0  0  0  0  0  0
   23.5302   -0.2275  -13.1846 C   0  0  0  0  0  0  0  0  0  0  0  0
   23.3708    0.2486  -14.4618 N   0  0  0  0  0  0  0  0  0  0  0  0
   22.0664    0.3547  -14.6280 N   0  0  0  0  0  0  0  0  0  0  0  0
   21.4509   -0.0295  -13.5305 N   0  0  0  0  0  0  0  0  0  0  0  0
   22.3330   -0.3992  -12.6103 N   0  0  0  0  0  0  0  0  0  0  0  0
  1  2  1  0
  2  3  2  0
  3  4  1  0
  3  5  1  0
  5  6  2  0
  6  7  1  0
  7  8  2  0
  9  8  1  1
 10  9  1  1
 10 11  1  0
 11 12  1  1
 12 13  2  0
 13 14  1  0
 14 15  2  0
 15 16  1  0
 16 17  1  0
 16 18  2  0
 11 19  1  0
 19 20  1  0
 20 21  2  0
 21 22  1  0
 22 23  2  0
 23 24  1  0
  8  2  1  0
 24  9  1  0
 18 12  1  0
 24 20  1  0
M  END
$$$$
