_rank7
     RDKit          3D

 20 22  0  0  0  0  0  0  0  0999 V2000
   25.1043   -0.2955  -12.8298 O   0  0  0  0  0  0  0  0  0  0  0  0
   25.8958   -0.0223  -11.9163 N   0  0  0  0  0  4  0  0  0  0  0  0
   27.1506    0.4540  -12.2813 O   0  0  0  0  0  1  0  0  0  0  0  0
   25.5117   -0.1737  -10.5750 C   0  0  0  0  0  0  0  0  0  0  0  0
   24.2184   -0.4235  -10.2024 C   0  0  0  0  0  0  0  0  0  0  0  0
   23.1804   -0.5396  -11.1416 N   0  0  0  0  0  0  0  0  0  0  0  0
   21.8258   -0.7997  -10.9223 C   0  0  0  0  0  0  0  0  0  0  0  0
   21.2639   -2.0296  -11.1558 C   0  0  0  0  0  0  0  0  0  0  0  0
   19.9341   -2.3133  -10.9460 C   0  0  0  0  0  0  0  0  0  0  0  0
   19.0949   -1.3276  -10.4755 C   0  0  0  0  0  0  0  0  0  0  0  0
   17.7635   -1.5790  -10.2554 F   0  0  0  0  0  0  0  0  0  0  0  0
   19.6210   -0.0784  -10.2284 C   0  0  0  0  0  0  0  0  0  0  0  0
   20.9773    0.1830  -10.4506 C   0  0  0  0  0  0  0  0  0  0  0  0
   23.9790   -0.5991   -8.8285 C   0  0  0  0  0  0  0  0  0  0  0  0
   24.9869   -0.5254   -7.8915 C   0  0  0  0  0  0  0  0  0  0  0  0
   26.2883   -0.2718   -8.2827 C   0  0  0  0  0  0  0  0  0  0  0  0
   27.4700   -0.1410   -7.6310 N   0  0  0  0  0  0  0  0  0  0  0  0
   28.3917    0.0994   -8.5230 O   0  0  0  0  0  0  0  0  0  0  0  0
   27.8706    0.1310   -9.7136 N   0  0  0  0  0  0  0  0  0  0  0  0
   26.5446   -0.0973   -9.6199 C   0  0  0  0  0  0  0  0  0  0  0  0
  1  2  2  0
  2  3  1  0
  2  4  1  0
  4  5  2  0
  5  6  1  0
  6  7  1  0
  7  8  2  0
  8  9  1  0
  9 10  2  0
 10 11  1  0
 10 12  1  0
 12 13  2  0
  5 14  1  0
 14 15  2  0
 15 16  1  0
 16 17  2  0
 17 18  1  0
 18 19  1  0
 19 20  2  0
 20  4  1  0
 13  7  1  0
 20 16  1  0
M  CHG  2   2   1   3  -1
M  END
$$$$
