_rank8
     RDKit          3D

 20 22  0  0  0  0  0  0  0  0999 V2000
   25.1955    0.2308  -12.8173 O   0  0  0  0  0  0  0  0  0  0  0  0
   26.0188   -0.0383  -11.9310 N   0  0  0  0  0  4  0  0  0  0  0  0
   27.3510   -0.1567  -12.3132 O   0  0  0  0  0  1  0  0  0  0  0  0
   25.6039   -0.1905  -10.5991 C   0  0  0  0  0  0  0  0  0  0  0  0
   24.3218   -0.5307  -10.2607 C   0  0  0  0  0  0  0  0  0  0  0  0
   23.3267   -0.7456  -11.2285 N   0  0  0  0  0  0  0  0  0  0  0  0
   21.9408   -0.7960  -11.0635 C   0  0  0  0  0  0  0  0  0  0  0  0
   21.2181    0.2608  -10.5698 C   0  0  0  0  0  0  0  0  0  0  0  0
   19.8530    0.2387  -10.3996 C   0  0  0  0  0  0  0  0  0  0  0  0
   19.1446   -0.8939  -10.7349 C   0  0  0  0  0  0  0  0  0  0  0  0
   17.7820   -0.9474  -10.5774 F   0  0  0  0  0  0  0  0  0  0  0  0
   19.8340   -1.9773  -11.2344 C   0  0  0  0  0  0  0  0  0  0  0  0
   21.2227   -1.9278  -11.3973 C   0  0  0  0  0  0  0  0  0  0  0  0
   24.0518   -0.6951   -8.8912 C   0  0  0  0  0  0  0  0  0  0  0  0
   25.0202   -0.5248   -7.9255 C   0  0  0  0  0  0  0  0  0  0  0  0
   26.3107   -0.1806   -8.2822 C   0  0  0  0  0  0  0  0  0  0  0  0
   27.4572    0.0540   -7.5976 N   0  0  0  0  0  0  0  0  0  0  0  0
   28.3865    0.3455   -8.4661 O   0  0  0  0  0  0  0  0  0  0  0  0
   27.9036    0.3120   -9.6727 N   0  0  0  0  0  0  0  0  0  0  0  0
   26.5964   -0.0152   -9.6146 C   0  0  0  0  0  0  0  0  0  0  0  0
  1  2  2  0
  2  3  1  0
  2  4  1  0
  4  5  2  0
  5  6  1  0
  6  7  1  0
  7  8  2  0
  8  9  1  0
  9 10  2  0
 10 11  1  0
 10 12  1  0
 12 13  2  0
  5 14  1  0
 14 15  2  0
 15 16  1  0
 16 17  2  0
 17 18  1  0
 18 19  1  0
 19 20  2  0
 20  4  1  0
 13  7  1  0
 20 16  1  0
M  CHG  2   2   1   3  -1
M  END
$$$$
