_rank17
     RDKit          3D

 24 27  0  0  0  0  0  0  0  0999 V2000
   20.0629   -2.7965   -9.9181 F   0  0  0  0  0  0  0  0  0  0  0  0
   20.0032   -1.4369   -9.8853 C   0  0  0  0  0  0  0  0  0  0  0  0
   18.8200   -0.9106   -9.3785 C   0  0  0  0  0  0  0  0  0  0  0  0
   17.5168   -1.9666   -8.8275 Cl  0  0  0  0  0  0  0  0  0  0  0  0
   18.6551    0.4531   -9.3015 C   0  0  0  0  0  0  0  0  0  0  0  0
   19.6799    1.2896   -9.7337 C   0  0  0  0  0  0  0  0  0  0  0  0
   20.8475    0.7586  -10.2339 C   0  0  0  0  0  0  0  0  0  0  0  0
   21.0066   -0.6198  -10.3091 C   0  0  0  0  0  0  0  0  0  0  0  0
   22.2436   -1.2153  -10.8626 C   0  0  2  0  0  0  0  0  0  0  0  0
   23.4197   -0.6907  -10.0869 C   0  0  0  0  0  0  0  0  0  0  0  0
   24.7170   -0.6415  -10.7870 C   0  0  1  0  0  0  0  0  0  0  0  0
   25.9237   -0.9841  -10.0482 C   0  0  0  0  0  0  0  0  0  0  0  0
   26.5932   -2.1615  -10.1398 C   0  0  0  0  0  0  0  0  0  0  0  0
   27.7502   -2.3751   -9.3831 C   0  0  0  0  0  0  0  0  0  0  0  0
   28.2006   -1.3933   -8.5530 C   0  0  0  0  0  0  0  0  0  0  0  0
   27.5331   -0.2002   -8.4519 C   0  0  0  0  0  0  0  0  0  0  0  0
   28.1885    1.1687   -7.2724 Br  0  0  0  0  0  0  0  0  0  0  0  0
   26.4108   -0.0005   -9.1899 C   0  0  0  0  0  0  0  0  0  0  0  0
   24.6757   -1.4139  -12.0295 N   0  0  0  0  0  0  0  0  0  0  0  0
   23.5339   -1.2099  -12.8597 C   0  0  0  0  0  0  0  0  0  0  0  0
   23.4132   -1.0896  -14.2214 N   0  0  0  0  0  0  0  0  0  0  0  0
   22.1245   -0.9075  -14.4369 N   0  0  0  0  0  0  0  0  0  0  0  0
   21.4819   -0.9142  -13.2889 N   0  0  0  0  0  0  0  0  0  0  0  0
   22.3297   -1.1007  -12.2849 N   0  0  0  0  0  0  0  0  0  0  0  0
  1  2  1  0
  2  3  2  0
  3  4  1  0
  3  5  1  0
  5  6  2  0
  6  7  1  0
  7  8  2  0
  9  8  1  1
 10  9  1  1
 10 11  1  0
 11 12  1  1
 12 13  2  0
 13 14  1  0
 14 15  2  0
 15 16  1  0
 16 17  1  0
 16 18  2  0
 11 19  1  0
 19 20  1  0
 20 21  2  0
 21 22  1  0
 22 23  2  0
 23 24  1  0
  8  2  1  0
 24  9  1  0
 18 12  1  0
 24 20  1  0
M  END
$$$$
