_rank17
     RDKit          3D

 20 22  0  0  0  0  0  0  0  0999 V2000
   24.9154   -0.4596  -13.0418 O   0  0  0  0  0  0  0  0  0  0  0  0
   25.7051   -0.0922  -12.1603 N   0  0  0  0  0  4  0  0  0  0  0  0
   26.9189    0.4452  -12.5756 O   0  0  0  0  0  1  0  0  0  0  0  0
   25.3578   -0.2026  -10.8051 C   0  0  0  0  0  0  0  0  0  0  0  0
   24.0879   -0.5035  -10.3917 C   0  0  0  0  0  0  0  0  0  0  0  0
   23.0384   -0.7173  -11.3005 N   0  0  0  0  0  0  0  0  0  0  0  0
   21.6614   -0.6316  -11.0839 C   0  0  0  0  0  0  0  0  0  0  0  0
   20.7825   -1.5809  -11.5414 C   0  0  0  0  0  0  0  0  0  0  0  0
   19.4227   -1.5221  -11.3400 C   0  0  0  0  0  0  0  0  0  0  0  0
   18.8840   -0.4630  -10.6435 C   0  0  0  0  0  0  0  0  0  0  0  0
   17.5315   -0.3756  -10.4255 F   0  0  0  0  0  0  0  0  0  0  0  0
   19.7336    0.5116  -10.1674 C   0  0  0  0  0  0  0  0  0  0  0  0
   21.1128    0.4271  -10.3865 C   0  0  0  0  0  0  0  0  0  0  0  0
   23.8871   -0.6288   -9.0062 C   0  0  0  0  0  0  0  0  0  0  0  0
   24.9089   -0.4590   -8.0971 C   0  0  0  0  0  0  0  0  0  0  0  0
   26.1862   -0.1546   -8.5294 C   0  0  0  0  0  0  0  0  0  0  0  0
   27.3724    0.0684   -7.9118 N   0  0  0  0  0  0  0  0  0  0  0  0
   28.2609    0.3166   -8.8347 O   0  0  0  0  0  0  0  0  0  0  0  0
   27.7142    0.2661  -10.0132 N   0  0  0  0  0  0  0  0  0  0  0  0
   26.4048   -0.0279   -9.8786 C   0  0  0  0  0  0  0  0  0  0  0  0
  1  2  2  0
  2  3  1  0
  2  4  1  0
  4  5  2  0
  5  6  1  0
  6  7  1  0
  7  8  2  0
  8  9  1  0
  9 10  2  0
 10 11  1  0
 10 12  1  0
 12 13  2  0
  5 14  1  0
 14 15  2  0
 15 16  1  0
 16 17  2  0
 17 18  1  0
 18 19  1  0
 19 20  2  0
 20  4  1  0
 13  7  1  0
 20 16  1  0
M  CHG  2   2   1   3  -1
M  END
$$$$
