_rank11
     RDKit          3D

 20 22  0  0  0  0  0  0  0  0999 V2000
   26.6788    1.6072  -11.8943 O   0  0  0  0  0  0  0  0  0  0  0  0
   25.6197    1.1877  -11.4065 N   0  0  0  0  0  4  0  0  0  0  0  0
   24.4369    1.7595  -11.8635 O   0  0  0  0  0  1  0  0  0  0  0  0
   25.6361    0.1610  -10.4499 C   0  0  0  0  0  0  0  0  0  0  0  0
   24.7304   -0.8654  -10.4546 C   0  0  0  0  0  0  0  0  0  0  0  0
   23.7130   -0.9585  -11.4187 N   0  0  0  0  0  0  0  0  0  0  0  0
   22.3408   -1.1360  -11.2294 C   0  0  0  0  0  0  0  0  0  0  0  0
   21.6961   -0.7355  -10.0862 C   0  0  0  0  0  0  0  0  0  0  0  0
   20.3461   -0.8961   -9.8753 C   0  0  0  0  0  0  0  0  0  0  0  0
   19.5719   -1.4887  -10.8482 C   0  0  0  0  0  0  0  0  0  0  0  0
   18.2222   -1.6629  -10.6684 F   0  0  0  0  0  0  0  0  0  0  0  0
   20.1819   -1.9049  -12.0115 C   0  0  0  0  0  0  0  0  0  0  0  0
   21.5571   -1.7294  -12.2000 C   0  0  0  0  0  0  0  0  0  0  0  0
   24.8883   -1.8524   -9.4665 C   0  0  0  0  0  0  0  0  0  0  0  0
   25.9002   -1.8018   -8.5321 C   0  0  0  0  0  0  0  0  0  0  0  0
   26.8071   -0.7585   -8.5393 C   0  0  0  0  0  0  0  0  0  0  0  0
   27.8818   -0.4261   -7.7824 N   0  0  0  0  0  0  0  0  0  0  0  0
   28.3708    0.6882   -8.2537 O   0  0  0  0  0  0  0  0  0  0  0  0
   27.6717    1.0931   -9.2722 N   0  0  0  0  0  0  0  0  0  0  0  0
   26.6716    0.2164   -9.4960 C   0  0  0  0  0  0  0  0  0  0  0  0
  1  2  2  0
  2  3  1  0
  2  4  1  0
  4  5  2  0
  5  6  1  0
  6  7  1  0
  7  8  2  0
  8  9  1  0
  9 10  2  0
 10 11  1  0
 10 12  1  0
 12 13  2  0
  5 14  1  0
 14 15  2  0
 15 16  1  0
 16 17  2  0
 17 18  1  0
 18 19  1  0
 19 20  2  0
 20  4  1  0
 13  7  1  0
 20 16  1  0
M  CHG  2   2   1   3  -1
M  END
$$$$
