_rank14
     RDKit          3D

 24 27  0  0  0  0  0  0  0  0999 V2000
   20.2389   -2.9251  -11.0863 F   0  0  0  0  0  0  0  0  0  0  0  0
   19.9734   -1.6771  -10.6115 C   0  0  0  0  0  0  0  0  0  0  0  0
   18.6369   -1.4299  -10.3178 C   0  0  0  0  0  0  0  0  0  0  0  0
   17.4073   -2.6739  -10.5572 Cl  0  0  0  0  0  0  0  0  0  0  0  0
   18.2591   -0.1993   -9.8322 C   0  0  0  0  0  0  0  0  0  0  0  0
   19.2248    0.7844   -9.6409 C   0  0  0  0  0  0  0  0  0  0  0  0
   20.5455    0.5295   -9.9349 C   0  0  0  0  0  0  0  0  0  0  0  0
   20.9195   -0.7156  -10.4255 C   0  0  0  0  0  0  0  0  0  0  0  0
   22.3293   -1.0075  -10.7691 C   0  0  2  0  0  0  0  0  0  0  0  0
   23.2214   -0.1715   -9.8942 C   0  0  0  0  0  0  0  0  0  0  0  0
   24.5546    0.1687  -10.4259 C   0  0  1  0  0  0  0  0  0  0  0  0
   25.6904    0.1719   -9.5154 C   0  0  0  0  0  0  0  0  0  0  0  0
   25.8607    1.0271   -8.4749 C   0  0  0  0  0  0  0  0  0  0  0  0
   26.9940    0.9296   -7.6607 C   0  0  0  0  0  0  0  0  0  0  0  0
   27.9263   -0.0294   -7.9192 C   0  0  0  0  0  0  0  0  0  0  0  0
   27.7655   -0.8986   -8.9669 C   0  0  0  0  0  0  0  0  0  0  0  0
   29.0962   -2.2423   -9.3114 Br  0  0  0  0  0  0  0  0  0  0  0  0
   26.6625   -0.7977   -9.7527 C   0  0  0  0  0  0  0  0  0  0  0  0
   24.8781   -0.6445  -11.5990 N   0  0  0  0  0  0  0  0  0  0  0  0
   23.8508   -0.7696  -12.5807 C   0  0  0  0  0  0  0  0  0  0  0  0
   23.8997   -0.7446  -13.9519 N   0  0  0  0  0  0  0  0  0  0  0  0
   22.6493   -0.9000  -14.3427 N   0  0  0  0  0  0  0  0  0  0  0  0
   21.8707   -1.0155  -13.2885 N   0  0  0  0  0  0  0  0  0  0  0  0
   22.5867   -0.9390  -12.1735 N   0  0  0  0  0  0  0  0  0  0  0  0
  1  2  1  0
  2  3  2  0
  3  4  1  0
  3  5  1  0
  5  6  2  0
  6  7  1  0
  7  8  2  0
  9  8  1  6
 10  9  1  1
 10 11  1  0
 11 12  1  1
 12 13  2  0
 13 14  1  0
 14 15  2  0
 15 16  1  0
 16 17  1  0
 16 18  2  0
 11 19  1  0
 19 20  1  0
 20 21  2  0
 21 22  1  0
 22 23  2  0
 23 24  1  0
  8  2  1  0
 24  9  1  0
 18 12  1  0
 24 20  1  0
M  END
$$$$
