_rank5
     RDKit          3D

 20 22  0  0  0  0  0  0  0  0999 V2000
   25.2158    0.1757  -12.9796 O   0  0  0  0  0  0  0  0  0  0  0  0
   26.0476    0.1341  -12.0619 N   0  0  0  0  0  4  0  0  0  0  0  0
   27.3903    0.2208  -12.4143 O   0  0  0  0  0  1  0  0  0  0  0  0
   25.6275    0.0262  -10.7273 C   0  0  0  0  0  0  0  0  0  0  0  0
   24.3136   -0.1366  -10.3790 C   0  0  0  0  0  0  0  0  0  0  0  0
   23.2897   -0.2008  -11.3385 N   0  0  0  0  0  0  0  0  0  0  0  0
   21.9598   -0.5945  -11.1750 C   0  0  0  0  0  0  0  0  0  0  0  0
   21.0370    0.1799  -10.5180 C   0  0  0  0  0  0  0  0  0  0  0  0
   19.7211   -0.1827  -10.3452 C   0  0  0  0  0  0  0  0  0  0  0  0
   19.2754   -1.3846  -10.8490 C   0  0  0  0  0  0  0  0  0  0  0  0
   17.9686   -1.7747  -10.6937 F   0  0  0  0  0  0  0  0  0  0  0  0
   20.1716   -2.1913  -11.5157 C   0  0  0  0  0  0  0  0  0  0  0  0
   21.5046   -1.7982  -11.6771 C   0  0  0  0  0  0  0  0  0  0  0  0
   24.0357   -0.2771   -9.0084 C   0  0  0  0  0  0  0  0  0  0  0  0
   25.0270   -0.2534   -8.0512 C   0  0  0  0  0  0  0  0  0  0  0  0
   26.3494   -0.0874   -8.4179 C   0  0  0  0  0  0  0  0  0  0  0  0
   27.5235   -0.0216   -7.7430 N   0  0  0  0  0  0  0  0  0  0  0  0
   28.4765    0.1477   -8.6182 O   0  0  0  0  0  0  0  0  0  0  0  0
   27.9828    0.1947   -9.8200 N   0  0  0  0  0  0  0  0  0  0  0  0
   26.6435    0.0514   -9.7515 C   0  0  0  0  0  0  0  0  0  0  0  0
  1  2  2  0
  2  3  1  0
  2  4  1  0
  4  5  2  0
  5  6  1  0
  6  7  1  0
  7  8  2  0
  8  9  1  0
  9 10  2  0
 10 11  1  0
 10 12  1  0
 12 13  2  0
  5 14  1  0
 14 15  2  0
 15 16  1  0
 16 17  2  0
 17 18  1  0
 18 19  1  0
 19 20  2  0
 20  4  1  0
 13  7  1  0
 20 16  1  0
M  CHG  2   2   1   3  -1
M  END
$$$$
