_rank16
     RDKit          3D

 24 27  0  0  0  0  0  0  0  0999 V2000
   24.9721    3.1280  -11.9577 F   0  0  0  0  0  0  0  0  0  0  0  0
   25.5987    3.0453  -10.7520 C   0  0  0  0  0  0  0  0  0  0  0  0
   26.0080    4.2612  -10.2155 C   0  0  0  0  0  0  0  0  0  0  0  0
   25.7142    5.7779  -11.0701 Cl  0  0  0  0  0  0  0  0  0  0  0  0
   26.6521    4.2910   -9.0001 C   0  0  0  0  0  0  0  0  0  0  0  0
   26.8852    3.0981   -8.3223 C   0  0  0  0  0  0  0  0  0  0  0  0
   26.4760    1.8995   -8.8621 C   0  0  0  0  0  0  0  0  0  0  0  0
   25.8265    1.8772  -10.0903 C   0  0  0  0  0  0  0  0  0  0  0  0
   25.3957    0.6000  -10.7018 C   0  0  2  0  0  0  0  0  0  0  0  0
   23.9481    0.3699  -10.3677 C   0  0  0  0  0  0  0  0  0  0  0  0
   23.4830   -1.0293  -10.3275 C   0  0  1  0  0  0  0  0  0  0  0  0
   22.1602   -1.3416  -10.8488 C   0  0  0  0  0  0  0  0  0  0  0  0
   21.7837   -1.2381  -12.1490 C   0  0  0  0  0  0  0  0  0  0  0  0
   20.4818   -1.5746  -12.5346 C   0  0  0  0  0  0  0  0  0  0  0  0
   19.5938   -2.0068  -11.5963 C   0  0  0  0  0  0  0  0  0  0  0  0
   19.9623   -2.1155  -10.2804 C   0  0  0  0  0  0  0  0  0  0  0  0
   18.6902   -2.7267   -8.9754 Br  0  0  0  0  0  0  0  0  0  0  0  0
   21.2280   -1.7870   -9.9139 C   0  0  0  0  0  0  0  0  0  0  0  0
   24.4656   -1.9295  -10.9325 N   0  0  0  0  0  0  0  0  0  0  0  0
   25.8233   -1.7334  -10.5416 C   0  0  0  0  0  0  0  0  0  0  0  0
   26.8189   -2.6295  -10.2426 N   0  0  0  0  0  0  0  0  0  0  0  0
   27.8676   -1.8886   -9.9397 N   0  0  0  0  0  0  0  0  0  0  0  0
   27.5509   -0.6158  -10.0427 N   0  0  0  0  0  0  0  0  0  0  0  0
   26.2843   -0.4827  -10.4162 N   0  0  0  0  0  0  0  0  0  0  0  0
  1  2  1  0
  2  3  2  0
  3  4  1  0
  3  5  1  0
  5  6  2  0
  6  7  1  0
  7  8  2  0
  9  8  1  1
 10  9  1  1
 10 11  1  0
 11 12  1  6
 12 13  2  0
 13 14  1  0
 14 15  2  0
 15 16  1  0
 16 17  1  0
 16 18  2  0
 11 19  1  0
 19 20  1  0
 20 21  2  0
 21 22  1  0
 22 23  2  0
 23 24  1  0
  8  2  1  0
 24  9  1  0
 18 12  1  0
 24 20  1  0
M  END
$$$$
