_rank8
     RDKit          3D

 24 27  0  0  0  0  0  0  0  0999 V2000
   26.1457    2.3526   -9.4368 F   0  0  0  0  0  0  0  0  0  0  0  0
   26.5858    1.1052   -9.1149 C   0  0  0  0  0  0  0  0  0  0  0  0
   27.6334    1.0669   -8.2013 C   0  0  0  0  0  0  0  0  0  0  0  0
   28.3117    2.5531   -7.5318 Cl  0  0  0  0  0  0  0  0  0  0  0  0
   28.1543   -0.1440   -7.8075 C   0  0  0  0  0  0  0  0  0  0  0  0
   27.6224   -1.3183   -8.3318 C   0  0  0  0  0  0  0  0  0  0  0  0
   26.5853   -1.2696   -9.2359 C   0  0  0  0  0  0  0  0  0  0  0  0
   26.0646   -0.0428   -9.6293 C   0  0  0  0  0  0  0  0  0  0  0  0
   24.9640    0.0372  -10.6158 C   0  0  2  0  0  0  0  0  0  0  0  0
   23.7162   -0.5231   -9.9920 C   0  0  0  0  0  0  0  0  0  0  0  0
   22.7090   -1.0962  -10.9047 C   0  0  1  0  0  0  0  0  0  0  0  0
   21.2991   -0.8732  -10.6189 C   0  0  0  0  0  0  0  0  0  0  0  0
   20.6302   -1.3562   -9.5407 C   0  0  0  0  0  0  0  0  0  0  0  0
   19.2722   -1.0689   -9.3671 C   0  0  0  0  0  0  0  0  0  0  0  0
   18.6251   -0.3011  -10.2877 C   0  0  0  0  0  0  0  0  0  0  0  0
   19.2898    0.1924  -11.3804 C   0  0  0  0  0  0  0  0  0  0  0  0
   18.3535    1.2723  -12.6656 Br  0  0  0  0  0  0  0  0  0  0  0  0
   20.6081   -0.0909  -11.5418 C   0  0  0  0  0  0  0  0  0  0  0  0
   22.9847   -0.7266  -12.2937 N   0  0  0  0  0  0  0  0  0  0  0  0
   24.3374   -0.8641  -12.7249 C   0  0  0  0  0  0  0  0  0  0  0  0
   24.8713   -1.3337  -13.8987 N   0  0  0  0  0  0  0  0  0  0  0  0
   26.1779   -1.2382  -13.7437 N   0  0  0  0  0  0  0  0  0  0  0  0
   26.4442   -0.7418  -12.5548 N   0  0  0  0  0  0  0  0  0  0  0  0
   25.3200   -0.4967  -11.8931 N   0  0  0  0  0  0  0  0  0  0  0  0
  1  2  1  0
  2  3  2  0
  3  4  1  0
  3  5  1  0
  5  6  2  0
  6  7  1  0
  7  8  2  0
  9  8  1  1
 10  9  1  1
 10 11  1  0
 11 12  1  1
 12 13  2  0
 13 14  1  0
 14 15  2  0
 15 16  1  0
 16 17  1  0
 16 18  2  0
 11 19  1  0
 19 20  1  0
 20 21  2  0
 21 22  1  0
 22 23  2  0
 23 24  1  0
  8  2  1  0
 24  9  1  0
 18 12  1  0
 24 20  1  0
M  END
$$$$
