_rank19
     RDKit          3D

 20 22  0  0  0  0  0  0  0  0999 V2000
   26.5230    0.9631  -12.4663 O   0  0  0  0  0  0  0  0  0  0  0  0
   25.7472    0.0646  -12.1105 N   0  0  0  0  0  4  0  0  0  0  0  0
   25.2246   -0.7567  -13.1040 O   0  0  0  0  0  1  0  0  0  0  0  0
   25.4408   -0.1124  -10.7525 C   0  0  0  0  0  0  0  0  0  0  0  0
   24.2256   -0.5761  -10.3254 C   0  0  0  0  0  0  0  0  0  0  0  0
   23.1944   -0.9021  -11.2216 N   0  0  0  0  0  0  0  0  0  0  0  0
   21.8246   -0.6544  -11.1082 C   0  0  0  0  0  0  0  0  0  0  0  0
   20.9082   -1.1578  -11.9968 C   0  0  0  0  0  0  0  0  0  0  0  0
   19.5541   -0.9315  -11.9069 C   0  0  0  0  0  0  0  0  0  0  0  0
   19.0608   -0.1601  -10.8780 C   0  0  0  0  0  0  0  0  0  0  0  0
   17.7151    0.0838  -10.7603 F   0  0  0  0  0  0  0  0  0  0  0  0
   19.9491    0.3640   -9.9643 C   0  0  0  0  0  0  0  0  0  0  0  0
   21.3215    0.1180  -10.0794 C   0  0  0  0  0  0  0  0  0  0  0  0
   24.0669   -0.7501   -8.9397 C   0  0  0  0  0  0  0  0  0  0  0  0
   25.0761   -0.4712   -8.0435 C   0  0  0  0  0  0  0  0  0  0  0  0
   26.2979   -0.0029   -8.4896 C   0  0  0  0  0  0  0  0  0  0  0  0
   27.4583    0.3545   -7.8863 N   0  0  0  0  0  0  0  0  0  0  0  0
   28.2925    0.7276   -8.8180 O   0  0  0  0  0  0  0  0  0  0  0  0
   27.7350    0.6308   -9.9884 N   0  0  0  0  0  0  0  0  0  0  0  0
   26.4747    0.1742   -9.8392 C   0  0  0  0  0  0  0  0  0  0  0  0
  1  2  2  0
  2  3  1  0
  2  4  1  0
  4  5  2  0
  5  6  1  0
  6  7  1  0
  7  8  2  0
  8  9  1  0
  9 10  2  0
 10 11  1  0
 10 12  1  0
 12 13  2  0
  5 14  1  0
 14 15  2  0
 15 16  1  0
 16 17  2  0
 17 18  1  0
 18 19  1  0
 19 20  2  0
 20  4  1  0
 13  7  1  0
 20 16  1  0
M  CHG  2   2   1   3  -1
M  END
$$$$
