_rank5
     RDKit          3D

 22 24  0  0  0  0  0  0  0  0999 V2000
   18.7070   -3.2649  -10.8093 O   0  0  0  0  0  0  0  0  0  0  0  0
   19.1363   -2.3800  -11.5564 N   0  0  0  0  0  4  0  0  0  0  0  0
   18.8277   -2.3799  -12.8676 O   0  0  0  0  0  1  0  0  0  0  0  0
   19.9349   -1.3489  -11.0061 C   0  0  0  0  0  0  0  0  0  0  0  0
   19.4230   -0.4251  -10.0994 C   0  0  0  0  0  0  0  0  0  0  0  0
   20.1795    0.5668   -9.5244 C   0  0  0  0  0  0  0  0  0  0  0  0
   21.5005    0.6675   -9.8453 C   0  0  0  0  0  0  0  0  0  0  0  0
   22.0639   -0.2159  -10.7365 C   0  0  0  0  0  0  0  0  0  0  0  0
   23.4515   -0.0971  -11.0243 N   0  0  0  0  0  0  0  0  0  0  0  0
   24.5187   -0.0756  -10.1085 C   0  0  0  0  0  0  0  0  0  0  0  0
   24.2383   -0.0386   -8.7407 C   0  0  0  0  0  0  0  0  0  0  0  0
   25.2211    0.0244   -7.7736 C   0  0  0  0  0  0  0  0  0  0  0  0
   26.5382    0.0533   -8.1216 C   0  0  0  0  0  0  0  0  0  0  0  0
   27.7180    0.1202   -7.4915 N   0  0  0  0  0  0  0  0  0  0  0  0
   28.6644    0.1260   -8.3791 O   0  0  0  0  0  0  0  0  0  0  0  0
   28.1716    0.0662   -9.5768 N   0  0  0  0  0  0  0  0  0  0  0  0
   26.8332    0.0186   -9.4655 C   0  0  0  0  0  0  0  0  0  0  0  0
   25.8579   -0.0444  -10.4493 C   0  0  0  0  0  0  0  0  0  0  0  0
   26.2585   -0.0666  -11.8161 N   0  0  0  0  0  4  0  0  0  0  0  0
   25.5118   -0.0281  -12.7846 O   0  0  0  0  0  0  0  0  0  0  0  0
   27.6261   -0.1323  -12.1103 O   0  0  0  0  0  1  0  0  0  0  0  0
   21.2843   -1.2116  -11.3064 C   0  0  0  0  0  0  0  0  0  0  0  0
  1  2  2  0
  2  3  1  0
  2  4  1  0
  4  5  2  0
  5  6  1  0
  6  7  2  0
  7  8  1  0
  8  9  1  0
  9 10  1  0
 10 11  1  0
 11 12  2  0
 12 13  1  0
 13 14  2  0
 14 15  1  0
 15 16  1  0
 16 17  2  0
 17 18  1  0
 18 19  1  0
 19 20  2  0
 19 21  1  0
  8 22  2  0
 22  4  1  0
 18 10  2  0
 17 13  1  0
M  CHG  4   2   1   3  -1  19   1  21  -1
M  END
$$$$
