_rank1
     RDKit          3D

 21 23  0  0  0  0  0  0  0  0999 V2000
   27.4032    0.0927  -12.5054 O   0  0  0  0  0  0  0  0  0  0  0  0
   26.3152    0.4639  -12.0818 N   0  0  0  0  0  4  0  0  0  0  0  0
   25.4915    1.1330  -12.9438 O   0  0  0  0  0  1  0  0  0  0  0  0
   25.8632    0.2047  -10.7677 C   0  0  0  0  0  0  0  0  0  0  0  0
   24.5503   -0.0384  -10.4249 C   0  0  0  0  0  0  0  0  0  0  0  0
   23.5657   -0.0694  -11.4400 N   0  0  0  0  0  0  0  0  0  0  0  0
   22.2326   -0.3990  -11.1120 C   0  0  0  0  0  0  0  0  0  0  0  0
   21.8780   -1.6545  -10.6194 C   0  0  0  0  0  0  0  0  0  0  0  0
   20.5910   -2.0112  -10.3115 C   0  0  0  0  0  0  0  0  0  0  0  0
   19.5707   -1.1007  -10.4879 C   0  0  0  0  0  0  0  0  0  0  0  0
   17.9180   -1.5468  -10.0969 Cl  0  0  0  0  0  0  0  0  0  0  0  0
   19.8613    0.1425  -10.9672 C   0  0  0  0  0  0  0  0  0  0  0  0
   18.5358    1.2930  -11.1840 Cl  0  0  0  0  0  0  0  0  0  0  0  0
   21.1606    0.4822  -11.2708 C   0  0  0  0  0  0  0  0  0  0  0  0
   24.1960   -0.2460   -9.0950 C   0  0  0  0  0  0  0  0  0  0  0  0
   25.1401   -0.2158   -8.1052 C   0  0  0  0  0  0  0  0  0  0  0  0
   26.4648    0.0211   -8.4027 C   0  0  0  0  0  0  0  0  0  0  0  0
   27.6027    0.1130   -7.6997 N   0  0  0  0  0  0  0  0  0  0  0  0
   28.5531    0.3562   -8.5417 O   0  0  0  0  0  0  0  0  0  0  0  0
   28.1401    0.4351   -9.7612 N   0  0  0  0  0  0  0  0  0  0  0  0
   26.7977    0.2245   -9.7128 C   0  0  0  0  0  0  0  0  0  0  0  0
  1  2  2  0
  2  3  1  0
  2  4  1  0
  4  5  2  0
  5  6  1  0
  6  7  1  0
  7  8  2  0
  8  9  1  0
  9 10  2  0
 10 11  1  0
 10 12  1  0
 12 13  1  0
 12 14  2  0
  5 15  1  0
 15 16  2  0
 16 17  1  0
 17 18  2  0
 18 19  1  0
 19 20  1  0
 20 21  2  0
 21  4  1  0
 14  7  1  0
 21 17  1  0
M  CHG  2   2   1   3  -1
M  END
$$$$
