_rank7
     RDKit          3D

 22 24  0  0  0  0  0  0  0  0999 V2000
   18.5182    2.0262  -10.6230 O   0  0  0  0  0  0  0  0  0  0  0  0
   18.3800    0.8169  -10.8325 N   0  0  0  0  0  4  0  0  0  0  0  0
   17.1890    0.3191  -11.2177 O   0  0  0  0  0  1  0  0  0  0  0  0
   19.5021   -0.0342  -10.6891 C   0  0  0  0  0  0  0  0  0  0  0  0
   19.3694   -1.3762  -10.3448 C   0  0  0  0  0  0  0  0  0  0  0  0
   20.4355   -2.2345  -10.2287 C   0  0  0  0  0  0  0  0  0  0  0  0
   21.6951   -1.7667  -10.4586 C   0  0  0  0  0  0  0  0  0  0  0  0
   21.8904   -0.4489  -10.8014 C   0  0  0  0  0  0  0  0  0  0  0  0
   23.2160   -0.0049  -11.0618 N   0  0  0  0  0  0  0  0  0  0  0  0
   24.3493   -0.1612  -10.2436 C   0  0  0  0  0  0  0  0  0  0  0  0
   24.1861   -0.6466   -8.9441 C   0  0  0  0  0  0  0  0  0  0  0  0
   25.2355   -0.7941   -8.0597 C   0  0  0  0  0  0  0  0  0  0  0  0
   26.5057   -0.4649   -8.4269 C   0  0  0  0  0  0  0  0  0  0  0  0
   27.7205   -0.4633   -7.8632 N   0  0  0  0  0  0  0  0  0  0  0  0
   28.5796   -0.0162   -8.7267 O   0  0  0  0  0  0  0  0  0  0  0  0
   27.9949    0.2825   -9.8445 N   0  0  0  0  0  0  0  0  0  0  0  0
   26.6852    0.0163   -9.7038 C   0  0  0  0  0  0  0  0  0  0  0  0
   25.6417    0.1707  -10.6041 C   0  0  0  0  0  0  0  0  0  0  0  0
   25.9223    0.6858  -11.9022 N   0  0  0  0  0  4  0  0  0  0  0  0
   25.0970    0.9340  -12.7708 O   0  0  0  0  0  0  0  0  0  0  0  0
   27.2551    0.9480  -12.2430 O   0  0  0  0  0  1  0  0  0  0  0  0
   20.8014    0.4026  -10.9147 C   0  0  0  0  0  0  0  0  0  0  0  0
  1  2  2  0
  2  3  1  0
  2  4  1  0
  4  5  2  0
  5  6  1  0
  6  7  2  0
  7  8  1  0
  8  9  1  0
  9 10  1  0
 10 11  1  0
 11 12  2  0
 12 13  1  0
 13 14  2  0
 14 15  1  0
 15 16  1  0
 16 17  2  0
 17 18  1  0
 18 19  1  0
 19 20  2  0
 19 21  1  0
  8 22  2  0
 22  4  1  0
 18 10  2  0
 17 13  1  0
M  CHG  4   2   1   3  -1  19   1  21  -1
M  END
$$$$
