_rank1
     RDKit          3D

 22 24  0  0  0  0  0  0  0  0999 V2000
   17.7829    1.0591  -10.0942 O   0  0  0  0  0  0  0  0  0  0  0  0
   19.0029    1.2135  -10.2098 N   0  0  0  0  0  4  0  0  0  0  0  0
   19.5511    2.4402  -10.1141 O   0  0  0  0  0  1  0  0  0  0  0  0
   19.8193    0.0756  -10.4157 C   0  0  0  0  0  0  0  0  0  0  0  0
   19.2986   -1.2152  -10.4106 C   0  0  0  0  0  0  0  0  0  0  0  0
   20.0587   -2.3365  -10.6382 C   0  0  0  0  0  0  0  0  0  0  0  0
   21.3925   -2.1983  -10.8835 C   0  0  0  0  0  0  0  0  0  0  0  0
   21.9655   -0.9479  -10.9004 C   0  0  0  0  0  0  0  0  0  0  0  0
   23.3541   -0.8418  -11.1885 N   0  0  0  0  0  0  0  0  0  0  0  0
   24.3928   -0.5182  -10.2971 C   0  0  0  0  0  0  0  0  0  0  0  0
   24.1786   -0.6633   -8.9245 C   0  0  0  0  0  0  0  0  0  0  0  0
   25.1263   -0.3325   -7.9770 C   0  0  0  0  0  0  0  0  0  0  0  0
   26.3403    0.1609   -8.3506 C   0  0  0  0  0  0  0  0  0  0  0  0
   27.4567    0.5828   -7.7431 N   0  0  0  0  0  0  0  0  0  0  0  0
   28.3050    0.9629   -8.6483 O   0  0  0  0  0  0  0  0  0  0  0  0
   27.8069    0.8149   -9.8361 N   0  0  0  0  0  0  0  0  0  0  0  0
   26.5685    0.3115   -9.6995 C   0  0  0  0  0  0  0  0  0  0  0  0
   25.6271   -0.0157  -10.6637 C   0  0  0  0  0  0  0  0  0  0  0  0
   25.9495    0.1836  -12.0369 N   0  0  0  0  0  4  0  0  0  0  0  0
   25.2977    0.8365  -12.8407 O   0  0  0  0  0  0  0  0  0  0  0  0
   27.1164   -0.4039  -12.5411 O   0  0  0  0  0  1  0  0  0  0  0  0
   21.1817    0.1728  -10.6692 C   0  0  0  0  0  0  0  0  0  0  0  0
  1  2  2  0
  2  3  1  0
  2  4  1  0
  4  5  2  0
  5  6  1  0
  6  7  2  0
  7  8  1  0
  8  9  1  0
  9 10  1  0
 10 11  1  0
 11 12  2  0
 12 13  1  0
 13 14  2  0
 14 15  1  0
 15 16  1  0
 16 17  2  0
 17 18  1  0
 18 19  1  0
 19 20  2  0
 19 21  1  0
  8 22  2  0
 22  4  1  0
 18 10  2  0
 17 13  1  0
M  CHG  4   2   1   3  -1  19   1  21  -1
M  END
$$$$
