_rank4
     RDKit          3D

 22 24  0  0  0  0  0  0  0  0999 V2000
   19.0629    2.2386  -10.1437 O   0  0  0  0  0  0  0  0  0  0  0  0
   18.6958    1.0601  -10.1013 N   0  0  0  0  0  4  0  0  0  0  0  0
   17.3967    0.7524   -9.9216 O   0  0  0  0  0  1  0  0  0  0  0  0
   19.6593    0.0375  -10.2737 C   0  0  0  0  0  0  0  0  0  0  0  0
   19.3170   -1.3110  -10.2351 C   0  0  0  0  0  0  0  0  0  0  0  0
   20.2226   -2.3253  -10.4298 C   0  0  0  0  0  0  0  0  0  0  0  0
   21.5273   -2.0153  -10.6747 C   0  0  0  0  0  0  0  0  0  0  0  0
   21.9270   -0.7000  -10.7238 C   0  0  0  0  0  0  0  0  0  0  0  0
   23.2905   -0.4154  -11.0103 N   0  0  0  0  0  0  0  0  0  0  0  0
   24.3551   -0.3102  -10.0972 C   0  0  0  0  0  0  0  0  0  0  0  0
   24.1037   -0.5038   -8.7370 C   0  0  0  0  0  0  0  0  0  0  0  0
   25.0787   -0.3808   -7.7677 C   0  0  0  0  0  0  0  0  0  0  0  0
   26.3587   -0.0583   -8.1060 C   0  0  0  0  0  0  0  0  0  0  0  0
   27.5187    0.1491   -7.4699 N   0  0  0  0  0  0  0  0  0  0  0  0
   28.4268    0.4485   -8.3471 O   0  0  0  0  0  0  0  0  0  0  0  0
   27.9271    0.4514   -9.5433 N   0  0  0  0  0  0  0  0  0  0  0  0
   26.6244    0.1371   -9.4422 C   0  0  0  0  0  0  0  0  0  0  0  0
   25.6564    0.0178  -10.4280 C   0  0  0  0  0  0  0  0  0  0  0  0
   26.0230    0.2483  -11.7850 N   0  0  0  0  0  4  0  0  0  0  0  0
   27.1571    0.4465  -12.1994 O   0  0  0  0  0  0  0  0  0  0  0  0
   25.0160    0.2480  -12.7582 O   0  0  0  0  0  1  0  0  0  0  0  0
   20.9979    0.3107  -10.5255 C   0  0  0  0  0  0  0  0  0  0  0  0
  1  2  2  0
  2  3  1  0
  2  4  1  0
  4  5  2  0
  5  6  1  0
  6  7  2  0
  7  8  1  0
  8  9  1  0
  9 10  1  0
 10 11  1  0
 11 12  2  0
 12 13  1  0
 13 14  2  0
 14 15  1  0
 15 16  1  0
 16 17  2  0
 17 18  1  0
 18 19  1  0
 19 20  2  0
 19 21  1  0
  8 22  2  0
 22  4  1  0
 18 10  2  0
 17 13  1  0
M  CHG  4   2   1   3  -1  19   1  21  -1
M  END
$$$$
