_rank9
     RDKit          3D

 22 24  0  0  0  0  0  0  0  0999 V2000
   18.3925    1.3742  -12.3032 O   0  0  0  0  0  0  0  0  0  0  0  0
   18.4299    0.7492  -11.2386 N   0  0  0  0  0  4  0  0  0  0  0  0
   17.3736    0.7545  -10.4026 O   0  0  0  0  0  1  0  0  0  0  0  0
   19.5910    0.0029  -10.9245 C   0  0  0  0  0  0  0  0  0  0  0  0
   19.5216   -1.3101  -10.4680 C   0  0  0  0  0  0  0  0  0  0  0  0
   20.6301   -2.0703  -10.1849 C   0  0  0  0  0  0  0  0  0  0  0  0
   21.8697   -1.5287  -10.3537 C   0  0  0  0  0  0  0  0  0  0  0  0
   22.0029   -0.2349  -10.8013 C   0  0  0  0  0  0  0  0  0  0  0  0
   23.3124    0.2855  -10.9925 N   0  0  0  0  0  0  0  0  0  0  0  0
   24.4636    0.0122  -10.2320 C   0  0  0  0  0  0  0  0  0  0  0  0
   24.3208   -0.3426   -8.8887 C   0  0  0  0  0  0  0  0  0  0  0  0
   25.3954   -0.5889   -8.0582 C   0  0  0  0  0  0  0  0  0  0  0  0
   26.6717   -0.4946   -8.5261 C   0  0  0  0  0  0  0  0  0  0  0  0
   27.9093   -0.6445   -8.0370 N   0  0  0  0  0  0  0  0  0  0  0  0
   28.7632   -0.4057   -8.9844 O   0  0  0  0  0  0  0  0  0  0  0  0
   28.1531   -0.1021  -10.0872 N   0  0  0  0  0  0  0  0  0  0  0  0
   26.8315   -0.1450   -9.8477 C   0  0  0  0  0  0  0  0  0  0  0  0
   25.7626    0.1060  -10.6948 C   0  0  0  0  0  0  0  0  0  0  0  0
   26.0258    0.4714  -12.0463 N   0  0  0  0  0  4  0  0  0  0  0  0
   27.1044    0.8344  -12.4957 O   0  0  0  0  0  0  0  0  0  0  0  0
   24.9751    0.4144  -12.9703 O   0  0  0  0  0  1  0  0  0  0  0  0
   20.8718    0.5171  -11.0827 C   0  0  0  0  0  0  0  0  0  0  0  0
  1  2  2  0
  2  3  1  0
  2  4  1  0
  4  5  2  0
  5  6  1  0
  6  7  2  0
  7  8  1  0
  8  9  1  0
  9 10  1  0
 10 11  1  0
 11 12  2  0
 12 13  1  0
 13 14  2  0
 14 15  1  0
 15 16  1  0
 16 17  2  0
 17 18  1  0
 18 19  1  0
 19 20  2  0
 19 21  1  0
  8 22  2  0
 22  4  1  0
 18 10  2  0
 17 13  1  0
M  CHG  4   2   1   3  -1  19   1  21  -1
M  END
$$$$
