_rank20
     RDKit          3D

 21 23  0  0  0  0  0  0  0  0999 V2000
   26.1613   -0.8111  -12.8441 O   0  0  0  0  0  0  0  0  0  0  0  0
   26.7795   -0.8159  -11.7864 N   0  0  0  0  0  4  0  0  0  0  0  0
   28.0951   -1.1864  -11.8202 O   0  0  0  0  0  1  0  0  0  0  0  0
   26.2110   -0.4267  -10.5520 C   0  0  0  0  0  0  0  0  0  0  0  0
   24.8994   -0.0382  -10.3817 C   0  0  0  0  0  0  0  0  0  0  0  0
   24.0258   -0.0494  -11.4941 N   0  0  0  0  0  0  0  0  0  0  0  0
   22.7516   -0.6462  -11.3772 C   0  0  0  0  0  0  0  0  0  0  0  0
   22.1500   -1.3258  -12.4359 C   0  0  0  0  0  0  0  0  0  0  0  0
   20.9068   -1.8974  -12.3600 C   0  0  0  0  0  0  0  0  0  0  0  0
   20.1881   -1.8123  -11.1863 C   0  0  0  0  0  0  0  0  0  0  0  0
   18.5942   -2.5409  -11.0776 Cl  0  0  0  0  0  0  0  0  0  0  0  0
   20.7290   -1.1587  -10.1186 C   0  0  0  0  0  0  0  0  0  0  0  0
   19.7884   -1.0637   -8.6240 Cl  0  0  0  0  0  0  0  0  0  0  0  0
   21.9796   -0.5909  -10.2144 C   0  0  0  0  0  0  0  0  0  0  0  0
   24.4405    0.3651   -9.1311 C   0  0  0  0  0  0  0  0  0  0  0  0
   25.2779    0.3818   -8.0492 C   0  0  0  0  0  0  0  0  0  0  0  0
   26.5960   -0.0008   -8.1730 C   0  0  0  0  0  0  0  0  0  0  0  0
   27.6465   -0.0996   -7.3458 N   0  0  0  0  0  0  0  0  0  0  0  0
   28.6459   -0.5249   -8.0469 O   0  0  0  0  0  0  0  0  0  0  0  0
   28.3472   -0.7204   -9.2864 N   0  0  0  0  0  0  0  0  0  0  0  0
   27.0329   -0.3933   -9.4074 C   0  0  0  0  0  0  0  0  0  0  0  0
  1  2  2  0
  2  3  1  0
  2  4  1  0
  4  5  2  0
  5  6  1  0
  6  7  1  0
  7  8  2  0
  8  9  1  0
  9 10  2  0
 10 11  1  0
 10 12  1  0
 12 13  1  0
 12 14  2  0
  5 15  1  0
 15 16  2  0
 16 17  1  0
 17 18  2  0
 18 19  1  0
 19 20  1  0
 20 21  2  0
 21  4  1  0
 14  7  1  0
 21 17  1  0
M  CHG  2   2   1   3  -1
M  END
$$$$
