_rank15
     RDKit          3D

 22 24  0  0  0  0  0  0  0  0999 V2000
   17.2626   -1.3407  -10.3698 O   0  0  0  0  0  0  0  0  0  0  0  0
   18.4154   -1.7394  -10.5636 N   0  0  0  0  0  4  0  0  0  0  0  0
   18.6515   -3.0266  -10.8828 O   0  0  0  0  0  1  0  0  0  0  0  0
   19.4828   -0.8140  -10.4730 C   0  0  0  0  0  0  0  0  0  0  0  0
   19.2676    0.5611  -10.4742 C   0  0  0  0  0  0  0  0  0  0  0  0
   20.2787    1.4833  -10.3563 C   0  0  0  0  0  0  0  0  0  0  0  0
   21.5647    1.0490  -10.2306 C   0  0  0  0  0  0  0  0  0  0  0  0
   21.8409   -0.2985  -10.2238 C   0  0  0  0  0  0  0  0  0  0  0  0
   23.1914   -0.7134  -10.0618 N   0  0  0  0  0  0  0  0  0  0  0  0
   24.3347   -0.1730  -10.6775 C   0  0  0  0  0  0  0  0  0  0  0  0
   24.2216    0.3723  -11.9584 C   0  0  0  0  0  0  0  0  0  0  0  0
   25.2971    0.8877  -12.6533 C   0  0  0  0  0  0  0  0  0  0  0  0
   26.5444    0.8864  -12.1048 C   0  0  0  0  0  0  0  0  0  0  0  0
   27.7748    1.2736  -12.4651 N   0  0  0  0  0  0  0  0  0  0  0  0
   28.5972    0.9985  -11.4999 O   0  0  0  0  0  0  0  0  0  0  0  0
   27.9730    0.4437  -10.5083 N   0  0  0  0  0  0  0  0  0  0  0  0
   26.6748    0.3518  -10.8433 C   0  0  0  0  0  0  0  0  0  0  0  0
   25.6047   -0.1700  -10.1322 C   0  0  0  0  0  0  0  0  0  0  0  0
   25.8378   -0.7113   -8.8353 N   0  0  0  0  0  4  0  0  0  0  0  0
   25.1577   -1.5630   -8.2792 O   0  0  0  0  0  0  0  0  0  0  0  0
   26.9422   -0.2508   -8.1079 O   0  0  0  0  0  1  0  0  0  0  0  0
   20.8065   -1.2149  -10.3432 C   0  0  0  0  0  0  0  0  0  0  0  0
  1  2  2  0
  2  3  1  0
  2  4  1  0
  4  5  2  0
  5  6  1  0
  6  7  2  0
  7  8  1  0
  8  9  1  0
  9 10  1  0
 10 11  1  0
 11 12  2  0
 12 13  1  0
 13 14  2  0
 14 15  1  0
 15 16  1  0
 16 17  2  0
 17 18  1  0
 18 19  1  0
 19 20  2  0
 19 21  1  0
  8 22  2  0
 22  4  1  0
 18 10  2  0
 17 13  1  0
M  CHG  4   2   1   3  -1  19   1  21  -1
M  END
$$$$
