_rank10
     RDKit          3D

 21 23  0  0  0  0  0  0  0  0999 V2000
   25.1669    0.3488  -13.0169 O   0  0  0  0  0  0  0  0  0  0  0  0
   26.0227    0.0889  -12.1796 N   0  0  0  0  0  4  0  0  0  0  0  0
   27.3225    0.0210  -12.5984 O   0  0  0  0  0  1  0  0  0  0  0  0
   25.7354   -0.1074  -10.8095 C   0  0  0  0  0  0  0  0  0  0  0  0
   24.5978   -0.7190  -10.3277 C   0  0  0  0  0  0  0  0  0  0  0  0
   23.6458   -1.2259  -11.2429 N   0  0  0  0  0  0  0  0  0  0  0  0
   22.2711   -0.9882  -11.0261 C   0  0  0  0  0  0  0  0  0  0  0  0
   21.3031   -1.9648  -11.2584 C   0  0  0  0  0  0  0  0  0  0  0  0
   19.9604   -1.7583  -11.0771 C   0  0  0  0  0  0  0  0  0  0  0  0
   19.5126   -0.5288  -10.6423 C   0  0  0  0  0  0  0  0  0  0  0  0
   17.7946   -0.2528  -10.4067 Cl  0  0  0  0  0  0  0  0  0  0  0  0
   20.4166    0.4629  -10.3996 C   0  0  0  0  0  0  0  0  0  0  0  0
   19.8180    2.0308   -9.8418 Cl  0  0  0  0  0  0  0  0  0  0  0  0
   21.7615    0.2362  -10.5876 C   0  0  0  0  0  0  0  0  0  0  0  0
   24.3853   -0.8323   -8.9569 C   0  0  0  0  0  0  0  0  0  0  0  0
   25.2987   -0.3434   -8.0632 C   0  0  0  0  0  0  0  0  0  0  0  0
   26.4511    0.2731   -8.5003 C   0  0  0  0  0  0  0  0  0  0  0  0
   27.5148    0.8413   -7.9145 N   0  0  0  0  0  0  0  0  0  0  0  0
   28.2933    1.2584   -8.8586 O   0  0  0  0  0  0  0  0  0  0  0  0
   27.8331    1.0134  -10.0385 N   0  0  0  0  0  0  0  0  0  0  0  0
   26.6457    0.3785   -9.8493 C   0  0  0  0  0  0  0  0  0  0  0  0
  1  2  2  0
  2  3  1  0
  2  4  1  0
  4  5  2  0
  5  6  1  0
  6  7  1  0
  7  8  2  0
  8  9  1  0
  9 10  2  0
 10 11  1  0
 10 12  1  0
 12 13  1  0
 12 14  2  0
  5 15  1  0
 15 16  2  0
 16 17  1  0
 17 18  2  0
 18 19  1  0
 19 20  1  0
 20 21  2  0
 21  4  1  0
 14  7  1  0
 21 17  1  0
M  CHG  2   2   1   3  -1
M  END
$$$$
