_rank13
     RDKit          3D

 21 23  0  0  0  0  0  0  0  0999 V2000
   25.9143    0.6876  -13.1794 O   0  0  0  0  0  0  0  0  0  0  0  0
   26.6621    0.5962  -12.2132 N   0  0  0  0  0  4  0  0  0  0  0  0
   27.9735    0.9406  -12.3889 O   0  0  0  0  0  1  0  0  0  0  0  0
   26.2287    0.1890  -10.9307 C   0  0  0  0  0  0  0  0  0  0  0  0
   24.9218   -0.1000  -10.6009 C   0  0  0  0  0  0  0  0  0  0  0  0
   23.9243   -0.0248  -11.6009 N   0  0  0  0  0  0  0  0  0  0  0  0
   22.5967   -0.3947  -11.2942 C   0  0  0  0  0  0  0  0  0  0  0  0
   22.2037   -0.7478  -10.0037 C   0  0  0  0  0  0  0  0  0  0  0  0
   20.9286   -1.1309   -9.6786 C   0  0  0  0  0  0  0  0  0  0  0  0
   19.9606   -1.1793  -10.6594 C   0  0  0  0  0  0  0  0  0  0  0  0
   18.3236   -1.6688  -10.2544 Cl  0  0  0  0  0  0  0  0  0  0  0  0
   20.2904   -0.8441  -11.9394 C   0  0  0  0  0  0  0  0  0  0  0  0
   19.0314   -0.9131  -13.1795 Cl  0  0  0  0  0  0  0  0  0  0  0  0
   21.5769   -0.4617  -12.2464 C   0  0  0  0  0  0  0  0  0  0  0  0
   24.5862   -0.4570   -9.2982 C   0  0  0  0  0  0  0  0  0  0  0  0
   25.5430   -0.5305   -8.3229 C   0  0  0  0  0  0  0  0  0  0  0  0
   26.8622   -0.2526   -8.6085 C   0  0  0  0  0  0  0  0  0  0  0  0
   28.0087   -0.2315   -7.9138 N   0  0  0  0  0  0  0  0  0  0  0  0
   28.9467    0.1107   -8.7351 O   0  0  0  0  0  0  0  0  0  0  0  0
   28.5173    0.3221   -9.9330 N   0  0  0  0  0  0  0  0  0  0  0  0
   27.1769    0.0979   -9.8918 C   0  0  0  0  0  0  0  0  0  0  0  0
  1  2  2  0
  2  3  1  0
  2  4  1  0
  4  5  2  0
  5  6  1  0
  6  7  1  0
  7  8  2  0
  8  9  1  0
  9 10  2  0
 10 11  1  0
 10 12  1  0
 12 13  1  0
 12 14  2  0
  5 15  1  0
 15 16  2  0
 16 17  1  0
 17 18  2  0
 18 19  1  0
 19 20  1  0
 20 21  2  0
 21  4  1  0
 14  7  1  0
 21 17  1  0
M  CHG  2   2   1   3  -1
M  END
$$$$
