_rank18
     RDKit          3D

 22 24  0  0  0  0  0  0  0  0999 V2000
   18.7066   -1.1037   -9.5191 O   0  0  0  0  0  0  0  0  0  0  0  0
   19.7677   -1.6871   -9.7622 N   0  0  0  0  0  4  0  0  0  0  0  0
   20.1931   -2.6937   -8.9745 O   0  0  0  0  0  1  0  0  0  0  0  0
   20.5157   -1.2994  -10.8997 C   0  0  0  0  0  0  0  0  0  0  0  0
   19.9461   -1.2326  -12.1680 C   0  0  0  0  0  0  0  0  0  0  0  0
   20.6366   -0.8303  -13.2852 C   0  0  0  0  0  0  0  0  0  0  0  0
   21.9471   -0.4744  -13.1657 C   0  0  0  0  0  0  0  0  0  0  0  0
   22.5661   -0.5208  -11.9382 C   0  0  0  0  0  0  0  0  0  0  0  0
   23.9259   -0.1145  -11.8482 N   0  0  0  0  0  0  0  0  0  0  0  0
   24.7700   -0.1856  -10.7253 C   0  0  0  0  0  0  0  0  0  0  0  0
   24.2322   -0.5731   -9.4959 C   0  0  0  0  0  0  0  0  0  0  0  0
   24.9767   -0.6320   -8.3351 C   0  0  0  0  0  0  0  0  0  0  0  0
   26.3001   -0.3073   -8.3407 C   0  0  0  0  0  0  0  0  0  0  0  0
   27.2970   -0.2390   -7.4492 N   0  0  0  0  0  0  0  0  0  0  0  0
   28.3727    0.1572   -8.0570 O   0  0  0  0  0  0  0  0  0  0  0  0
   28.1414    0.3580   -9.3167 N   0  0  0  0  0  0  0  0  0  0  0  0
   26.8468    0.0780   -9.5436 C   0  0  0  0  0  0  0  0  0  0  0  0
   26.1126    0.1427  -10.7183 C   0  0  0  0  0  0  0  0  0  0  0  0
   26.7623    0.5621  -11.9145 N   0  0  0  0  0  4  0  0  0  0  0  0
   27.9602    0.4779  -12.1493 O   0  0  0  0  0  0  0  0  0  0  0  0
   25.9846    1.1206  -12.9365 O   0  0  0  0  0  1  0  0  0  0  0  0
   21.8522   -0.9289  -10.8211 C   0  0  0  0  0  0  0  0  0  0  0  0
  1  2  2  0
  2  3  1  0
  2  4  1  0
  4  5  2  0
  5  6  1  0
  6  7  2  0
  7  8  1  0
  8  9  1  0
  9 10  1  0
 10 11  1  0
 11 12  2  0
 12 13  1  0
 13 14  2  0
 14 15  1  0
 15 16  1  0
 16 17  2  0
 17 18  1  0
 18 19  1  0
 19 20  2  0
 19 21  1  0
  8 22  2  0
 22  4  1  0
 18 10  2  0
 17 13  1  0
M  CHG  4   2   1   3  -1  19   1  21  -1
M  END
$$$$
