_rank13
     RDKit          3D

 22 24  0  0  0  0  0  0  0  0999 V2000
   17.4362    0.1067  -11.2047 O   0  0  0  0  0  0  0  0  0  0  0  0
   18.5568    0.1811  -11.7186 N   0  0  0  0  0  4  0  0  0  0  0  0
   18.7155    0.7204  -12.9428 O   0  0  0  0  0  1  0  0  0  0  0  0
   19.6762   -0.2837  -10.9875 C   0  0  0  0  0  0  0  0  0  0  0  0
   19.5540   -1.2357   -9.9795 C   0  0  0  0  0  0  0  0  0  0  0  0
   20.6242   -1.7294   -9.2739 C   0  0  0  0  0  0  0  0  0  0  0  0
   21.8773   -1.2763   -9.5613 C   0  0  0  0  0  0  0  0  0  0  0  0
   22.0620   -0.3344  -10.5466 C   0  0  0  0  0  0  0  0  0  0  0  0
   23.3869    0.0924  -10.8374 N   0  0  0  0  0  0  0  0  0  0  0  0
   24.5133    0.0264   -9.9976 C   0  0  0  0  0  0  0  0  0  0  0  0
   24.3312    0.0730   -8.6136 C   0  0  0  0  0  0  0  0  0  0  0  0
   25.3801    0.0543   -7.7166 C   0  0  0  0  0  0  0  0  0  0  0  0
   26.6685   -0.0128   -8.1548 C   0  0  0  0  0  0  0  0  0  0  0  0
   27.8906   -0.0396   -7.6076 N   0  0  0  0  0  0  0  0  0  0  0  0
   28.7714   -0.0974   -8.5586 O   0  0  0  0  0  0  0  0  0  0  0  0
   28.1943   -0.1102   -9.7194 N   0  0  0  0  0  0  0  0  0  0  0  0
   26.8670   -0.0583   -9.5160 C   0  0  0  0  0  0  0  0  0  0  0  0
   25.8244   -0.0400  -10.4301 C   0  0  0  0  0  0  0  0  0  0  0  0
   26.1272   -0.0809  -11.8214 N   0  0  0  0  0  4  0  0  0  0  0  0
   25.3131   -0.0690  -12.7348 O   0  0  0  0  0  0  0  0  0  0  0  0
   27.4712   -0.1340  -12.2112 O   0  0  0  0  0  1  0  0  0  0  0  0
   20.9692    0.1518  -11.2490 C   0  0  0  0  0  0  0  0  0  0  0  0
  1  2  2  0
  2  3  1  0
  2  4  1  0
  4  5  2  0
  5  6  1  0
  6  7  2  0
  7  8  1  0
  8  9  1  0
  9 10  1  0
 10 11  1  0
 11 12  2  0
 12 13  1  0
 13 14  2  0
 14 15  1  0
 15 16  1  0
 16 17  2  0
 17 18  1  0
 18 19  1  0
 19 20  2  0
 19 21  1  0
  8 22  2  0
 22  4  1  0
 18 10  2  0
 17 13  1  0
M  CHG  4   2   1   3  -1  19   1  21  -1
M  END
$$$$
