_rank3
     RDKit          3D

 22 24  0  0  0  0  0  0  0  0999 V2000
   19.7618   -3.4710  -11.8648 O   0  0  0  0  0  0  0  0  0  0  0  0
   19.1514   -2.4769  -11.4589 N   0  0  0  0  0  4  0  0  0  0  0  0
   17.8053   -2.4714  -11.4097 O   0  0  0  0  0  1  0  0  0  0  0  0
   19.8912   -1.3533  -11.0186 C   0  0  0  0  0  0  0  0  0  0  0  0
   19.3223   -0.3620  -10.2243 C   0  0  0  0  0  0  0  0  0  0  0  0
   20.0215    0.7234   -9.7555 C   0  0  0  0  0  0  0  0  0  0  0  0
   21.3407    0.8536  -10.0736 C   0  0  0  0  0  0  0  0  0  0  0  0
   21.9590   -0.0935  -10.8565 C   0  0  0  0  0  0  0  0  0  0  0  0
   23.3432    0.0616  -11.1430 N   0  0  0  0  0  0  0  0  0  0  0  0
   24.4219   -0.0450  -10.2468 C   0  0  0  0  0  0  0  0  0  0  0  0
   24.1593   -0.2540   -8.8909 C   0  0  0  0  0  0  0  0  0  0  0  0
   25.1531   -0.3311   -7.9362 C   0  0  0  0  0  0  0  0  0  0  0  0
   26.4641   -0.2041   -8.2854 C   0  0  0  0  0  0  0  0  0  0  0  0
   27.6501   -0.2133   -7.6636 N   0  0  0  0  0  0  0  0  0  0  0  0
   28.5838   -0.0262   -8.5450 O   0  0  0  0  0  0  0  0  0  0  0  0
   28.0765    0.1084   -9.7304 N   0  0  0  0  0  0  0  0  0  0  0  0
   26.7415    0.0034   -9.6174 C   0  0  0  0  0  0  0  0  0  0  0  0
   25.7549    0.0837  -10.5886 C   0  0  0  0  0  0  0  0  0  0  0  0
   26.1373    0.3104  -11.9420 N   0  0  0  0  0  4  0  0  0  0  0  0
   25.4110    0.2062  -12.9211 O   0  0  0  0  0  0  0  0  0  0  0  0
   27.4574    0.6949  -12.2076 O   0  0  0  0  0  1  0  0  0  0  0  0
   21.2366   -1.1832  -11.3200 C   0  0  0  0  0  0  0  0  0  0  0  0
  1  2  2  0
  2  3  1  0
  2  4  1  0
  4  5  2  0
  5  6  1  0
  6  7  2  0
  7  8  1  0
  8  9  1  0
  9 10  1  0
 10 11  1  0
 11 12  2  0
 12 13  1  0
 13 14  2  0
 14 15  1  0
 15 16  1  0
 16 17  2  0
 17 18  1  0
 18 19  1  0
 19 20  2  0
 19 21  1  0
  8 22  2  0
 22  4  1  0
 18 10  2  0
 17 13  1  0
M  CHG  4   2   1   3  -1  19   1  21  -1
M  END
$$$$
