_rank18
     RDKit          3D

 21 23  0  0  0  0  0  0  0  0999 V2000
   27.9001   -0.7354  -12.1531 O   0  0  0  0  0  0  0  0  0  0  0  0
   26.7038   -0.6161  -11.9171 N   0  0  0  0  0  4  0  0  0  0  0  0
   25.8296   -0.8050  -12.9512 O   0  0  0  0  0  1  0  0  0  0  0  0
   26.1898   -0.3300  -10.6318 C   0  0  0  0  0  0  0  0  0  0  0  0
   24.8484   -0.2798  -10.3180 C   0  0  0  0  0  0  0  0  0  0  0  0
   23.8932   -0.5612  -11.3227 N   0  0  0  0  0  0  0  0  0  0  0  0
   22.5190   -0.5702  -10.9987 C   0  0  0  0  0  0  0  0  0  0  0  0
   22.0478   -0.1649   -9.7504 C   0  0  0  0  0  0  0  0  0  0  0  0
   20.7233   -0.1816   -9.3990 C   0  0  0  0  0  0  0  0  0  0  0  0
   19.7825   -0.6176  -10.3080 C   0  0  0  0  0  0  0  0  0  0  0  0
   18.0826   -0.6435   -9.8688 Cl  0  0  0  0  0  0  0  0  0  0  0  0
   20.1883   -1.0257  -11.5443 C   0  0  0  0  0  0  0  0  0  0  0  0
   18.9631   -1.5798  -12.6930 Cl  0  0  0  0  0  0  0  0  0  0  0  0
   21.5237   -1.0016  -11.8786 C   0  0  0  0  0  0  0  0  0  0  0  0
   24.4378    0.0485   -9.0294 C   0  0  0  0  0  0  0  0  0  0  0  0
   25.3535    0.3246   -8.0510 C   0  0  0  0  0  0  0  0  0  0  0  0
   26.7047    0.2838   -8.3193 C   0  0  0  0  0  0  0  0  0  0  0  0
   27.8275    0.4912   -7.6166 N   0  0  0  0  0  0  0  0  0  0  0  0
   28.8218    0.3029   -8.4212 O   0  0  0  0  0  0  0  0  0  0  0  0
   28.4524   -0.0162   -9.6152 N   0  0  0  0  0  0  0  0  0  0  0  0
   27.0931   -0.0389   -9.5896 C   0  0  0  0  0  0  0  0  0  0  0  0
  1  2  2  0
  2  3  1  0
  2  4  1  0
  4  5  2  0
  5  6  1  0
  6  7  1  0
  7  8  2  0
  8  9  1  0
  9 10  2  0
 10 11  1  0
 10 12  1  0
 12 13  1  0
 12 14  2  0
  5 15  1  0
 15 16  2  0
 16 17  1  0
 17 18  2  0
 18 19  1  0
 19 20  1  0
 20 21  2  0
 21  4  1  0
 14  7  1  0
 21 17  1  0
M  CHG  2   2   1   3  -1
M  END
$$$$
