_rank12
     RDKit          3D

 22 24  0  0  0  0  0  0  0  0999 V2000
   18.8070    0.2525  -13.0609 O   0  0  0  0  0  0  0  0  0  0  0  0
   18.7034   -0.6423  -12.2158 N   0  0  0  0  0  4  0  0  0  0  0  0
   17.5578   -1.3402  -12.0927 O   0  0  0  0  0  1  0  0  0  0  0  0
   19.8189   -0.9420  -11.3976 C   0  0  0  0  0  0  0  0  0  0  0  0
   19.7759   -1.9429  -10.4314 C   0  0  0  0  0  0  0  0  0  0  0  0
   20.8503   -2.2784   -9.6439 C   0  0  0  0  0  0  0  0  0  0  0  0
   22.0269   -1.6084   -9.8022 C   0  0  0  0  0  0  0  0  0  0  0  0
   22.1309   -0.6078  -10.7403 C   0  0  0  0  0  0  0  0  0  0  0  0
   23.3827    0.0487  -10.8962 N   0  0  0  0  0  0  0  0  0  0  0  0
   24.5172   -0.0609  -10.0721 C   0  0  0  0  0  0  0  0  0  0  0  0
   24.3533   -0.0359   -8.6853 C   0  0  0  0  0  0  0  0  0  0  0  0
   25.4124   -0.0973   -7.8022 C   0  0  0  0  0  0  0  0  0  0  0  0
   26.6933   -0.1879   -8.2579 C   0  0  0  0  0  0  0  0  0  0  0  0
   27.9209   -0.2552   -7.7270 N   0  0  0  0  0  0  0  0  0  0  0  0
   28.7883   -0.3168   -8.6900 O   0  0  0  0  0  0  0  0  0  0  0  0
   28.1969   -0.2935   -9.8434 N   0  0  0  0  0  0  0  0  0  0  0  0
   26.8739   -0.2127   -9.6221 C   0  0  0  0  0  0  0  0  0  0  0  0
   25.8209   -0.1515  -10.5225 C   0  0  0  0  0  0  0  0  0  0  0  0
   26.1055   -0.1737  -11.9180 N   0  0  0  0  0  4  0  0  0  0  0  0
   27.1728   -0.4851  -12.4290 O   0  0  0  0  0  0  0  0  0  0  0  0
   25.0890    0.1828  -12.8128 O   0  0  0  0  0  1  0  0  0  0  0  0
   21.0354   -0.2836  -11.5269 C   0  0  0  0  0  0  0  0  0  0  0  0
  1  2  2  0
  2  3  1  0
  2  4  1  0
  4  5  2  0
  5  6  1  0
  6  7  2  0
  7  8  1  0
  8  9  1  0
  9 10  1  0
 10 11  1  0
 11 12  2  0
 12 13  1  0
 13 14  2  0
 14 15  1  0
 15 16  1  0
 16 17  2  0
 17 18  1  0
 18 19  1  0
 19 20  2  0
 19 21  1  0
  8 22  2  0
 22  4  1  0
 18 10  2  0
 17 13  1  0
M  CHG  4   2   1   3  -1  19   1  21  -1
M  END
$$$$
