_rank8
     RDKit          3D

 21 23  0  0  0  0  0  0  0  0999 V2000
   26.1519   -0.6904  -12.6932 O   0  0  0  0  0  0  0  0  0  0  0  0
   26.3435    0.1794  -11.8520 N   0  0  0  0  0  4  0  0  0  0  0  0
   27.0140    1.3052  -12.2423 O   0  0  0  0  0  1  0  0  0  0  0  0
   25.8780    0.0888  -10.5203 C   0  0  0  0  0  0  0  0  0  0  0  0
   24.5504    0.1231  -10.1508 C   0  0  0  0  0  0  0  0  0  0  0  0
   23.5569    0.2228  -11.1528 N   0  0  0  0  0  0  0  0  0  0  0  0
   22.2656   -0.2946  -10.9117 C   0  0  0  0  0  0  0  0  0  0  0  0
   22.0599   -1.6001  -10.4667 C   0  0  0  0  0  0  0  0  0  0  0  0
   20.8191   -2.1374  -10.2435 C   0  0  0  0  0  0  0  0  0  0  0  0
   19.6946   -1.3697  -10.4620 C   0  0  0  0  0  0  0  0  0  0  0  0
   18.0997   -2.0477  -10.1794 Cl  0  0  0  0  0  0  0  0  0  0  0  0
   19.8379   -0.0855  -10.8976 C   0  0  0  0  0  0  0  0  0  0  0  0
   18.3810    0.8794  -11.1698 Cl  0  0  0  0  0  0  0  0  0  0  0  0
   21.0930    0.4365  -11.1162 C   0  0  0  0  0  0  0  0  0  0  0  0
   24.1910    0.0652   -8.8074 C   0  0  0  0  0  0  0  0  0  0  0  0
   25.1441   -0.0291   -7.8303 C   0  0  0  0  0  0  0  0  0  0  0  0
   26.4830   -0.0689   -8.1542 C   0  0  0  0  0  0  0  0  0  0  0  0
   27.6320   -0.1567   -7.4690 N   0  0  0  0  0  0  0  0  0  0  0  0
   28.5935   -0.1502   -8.3333 O   0  0  0  0  0  0  0  0  0  0  0  0
   28.1777   -0.0644   -9.5513 N   0  0  0  0  0  0  0  0  0  0  0  0
   26.8211   -0.0099   -9.4775 C   0  0  0  0  0  0  0  0  0  0  0  0
  1  2  2  0
  2  3  1  0
  2  4  1  0
  4  5  2  0
  5  6  1  0
  6  7  1  0
  7  8  2  0
  8  9  1  0
  9 10  2  0
 10 11  1  0
 10 12  1  0
 12 13  1  0
 12 14  2  0
  5 15  1  0
 15 16  2  0
 16 17  1  0
 17 18  2  0
 18 19  1  0
 19 20  1  0
 20 21  2  0
 21  4  1  0
 14  7  1  0
 21 17  1  0
M  CHG  2   2   1   3  -1
M  END
$$$$
