_rank1
     RDKit          3D

 19 20  0  0  0  0  0  0  0  0999 V2000
   26.2536    0.6677  -13.8721 N   0  0  0  0  0  0  0  0  0  0  0  0
   26.0423    0.4217  -12.7710 C   0  0  0  0  0  0  0  0  0  0  0  0
   25.7925    0.0939  -11.3981 C   0  0  0  0  0  0  0  0  0  0  0  0
   26.8678    0.0046  -10.5025 C   0  0  0  0  0  0  0  0  0  0  0  0
   26.7103   -0.3159   -9.1760 C   0  0  0  0  0  0  0  0  0  0  0  0
   27.9257   -0.3771   -8.3371 C   0  0  0  0  0  0  0  0  0  0  0  0
   27.9900    0.6609   -7.3472 N   0  0  0  0  0  0  0  0  0  0  0  0
   25.4420   -0.5523   -8.7393 C   0  0  0  0  0  0  0  0  0  0  0  0
   24.3855   -0.4694   -9.5969 C   0  0  0  0  0  0  0  0  0  0  0  0
   24.5164   -0.1413  -10.9678 C   0  0  0  0  0  0  0  0  0  0  0  0
   23.3755   -0.0864  -11.7442 O   0  0  0  0  0  0  0  0  0  0  0  0
   22.1200   -0.3731  -11.2652 C   0  0  0  0  0  0  0  0  0  0  0  0
   21.5547   -1.6342  -11.5329 C   0  0  0  0  0  0  0  0  0  0  0  0
   20.2993   -1.9348  -11.0643 C   0  0  0  0  0  0  0  0  0  0  0  0
   19.7499   -3.1512  -11.3205 F   0  0  0  0  0  0  0  0  0  0  0  0
   19.5960   -1.0054  -10.3350 C   0  0  0  0  0  0  0  0  0  0  0  0
   20.1423    0.2272  -10.0705 C   0  0  0  0  0  0  0  0  0  0  0  0
   19.4820    1.1854   -9.3494 F   0  0  0  0  0  0  0  0  0  0  0  0
   21.3953    0.5376  -10.5341 C   0  0  0  0  0  0  0  0  0  0  0  0
  1  2  3  0
  2  3  1  0
  3  4  2  0
  4  5  1  0
  5  6  1  0
  6  7  1  6
  5  8  2  0
  8  9  1  0
  9 10  2  0
 10 11  1  0
 11 12  1  0
 12 13  2  0
 13 14  1  0
 14 15  1  0
 14 16  2  0
 16 17  1  0
 17 18  1  0
 17 19  2  0
 10  3  1  0
 19 12  1  0
M  END
$$$$
