_rank16
     RDKit          3D

 19 20  0  0  0  0  0  0  0  0999 V2000
   25.3291   -2.1639   -8.5103 N   0  0  0  0  0  0  0  0  0  0  0  0
   25.4005   -1.5296   -9.4643 C   0  0  0  0  0  0  0  0  0  0  0  0
   25.4743   -0.7206  -10.6454 C   0  0  0  0  0  0  0  0  0  0  0  0
   26.5553    0.1563  -10.8155 C   0  0  0  0  0  0  0  0  0  0  0  0
   26.6900    0.9715  -11.9130 C   0  0  0  0  0  0  0  0  0  0  0  0
   27.8771    1.8503  -11.9720 C   0  0  0  0  0  0  0  0  0  0  0  0
   29.1061    1.1722  -11.6702 N   0  0  0  0  0  0  0  0  0  0  0  0
   25.7152    0.9039  -12.8619 C   0  0  0  0  0  0  0  0  0  0  0  0
   24.6577    0.0566  -12.7119 C   0  0  0  0  0  0  0  0  0  0  0  0
   24.4920   -0.7950  -11.5931 C   0  0  0  0  0  0  0  0  0  0  0  0
   23.3800   -1.6127  -11.5463 O   0  0  0  0  0  0  0  0  0  0  0  0
   22.2132   -1.2671  -10.9084 C   0  0  0  0  0  0  0  0  0  0  0  0
   21.9409    0.0923  -10.6647 C   0  0  0  0  0  0  0  0  0  0  0  0
   20.7807    0.4539  -10.0249 C   0  0  0  0  0  0  0  0  0  0  0  0
   20.5139    1.7653   -9.7877 F   0  0  0  0  0  0  0  0  0  0  0  0
   19.8868   -0.5105   -9.6233 C   0  0  0  0  0  0  0  0  0  0  0  0
   20.1470   -1.8390   -9.8582 C   0  0  0  0  0  0  0  0  0  0  0  0
   19.2887   -2.8353   -9.4777 F   0  0  0  0  0  0  0  0  0  0  0  0
   21.3029   -2.2107  -10.4962 C   0  0  0  0  0  0  0  0  0  0  0  0
  1  2  3  0
  2  3  1  0
  3  4  2  0
  4  5  1  0
  5  6  1  0
  6  7  1  6
  5  8  2  0
  8  9  1  0
  9 10  2  0
 10 11  1  0
 11 12  1  0
 12 13  2  0
 13 14  1  0
 14 15  1  0
 14 16  2  0
 16 17  1  0
 17 18  1  0
 17 19  2  0
 10  3  1  0
 19 12  1  0
M  END
$$$$
