_rank12
     RDKit          3D

 19 20  0  0  0  0  0  0  0  0999 V2000
   24.7460    1.1928  -13.9589 N   0  0  0  0  0  0  0  0  0  0  0  0
   24.2341    0.6094  -13.1132 C   0  0  0  0  0  0  0  0  0  0  0  0
   23.5766   -0.1021  -12.0567 C   0  0  0  0  0  0  0  0  0  0  0  0
   22.1762   -0.0928  -11.9847 C   0  0  0  0  0  0  0  0  0  0  0  0
   21.4749   -0.7400  -10.9966 C   0  0  0  0  0  0  0  0  0  0  0  0
   19.9998   -0.6529  -11.0341 C   0  0  0  0  0  0  0  0  0  0  0  0
   19.3446   -1.8299  -10.5373 N   0  0  0  0  0  0  0  0  0  0  0  0
   22.1981   -1.4125  -10.0586 C   0  0  0  0  0  0  0  0  0  0  0  0
   23.5602   -1.4316  -10.1142 C   0  0  0  0  0  0  0  0  0  0  0  0
   24.3099   -0.7749  -11.1196 C   0  0  0  0  0  0  0  0  0  0  0  0
   25.6877   -0.8617  -11.0768 O   0  0  0  0  0  0  0  0  0  0  0  0
   26.4185   -0.7285   -9.9209 C   0  0  0  0  0  0  0  0  0  0  0  0
   25.8754   -0.0002   -8.8456 C   0  0  0  0  0  0  0  0  0  0  0  0
   26.5948    0.1452   -7.6848 C   0  0  0  0  0  0  0  0  0  0  0  0
   26.0741    0.8474   -6.6442 F   0  0  0  0  0  0  0  0  0  0  0  0
   27.8434   -0.4198   -7.5735 C   0  0  0  0  0  0  0  0  0  0  0  0
   28.3789   -1.1316   -8.6196 C   0  0  0  0  0  0  0  0  0  0  0  0
   29.6170   -1.7122   -8.5571 F   0  0  0  0  0  0  0  0  0  0  0  0
   27.6688   -1.2825   -9.7833 C   0  0  0  0  0  0  0  0  0  0  0  0
  1  2  3  0
  2  3  1  0
  3  4  2  0
  4  5  1  0
  5  6  1  0
  6  7  1  6
  5  8  2  0
  8  9  1  0
  9 10  2  0
 10 11  1  0
 11 12  1  0
 12 13  2  0
 13 14  1  0
 14 15  1  0
 14 16  2  0
 16 17  1  0
 17 18  1  0
 17 19  2  0
 10  3  1  0
 19 12  1  0
M  END
$$$$
