_rank20
     RDKit          3D

 19 20  0  0  0  0  0  0  0  0999 V2000
   21.6765   -0.6855   -7.2783 N   0  0  0  0  0  0  0  0  0  0  0  0
   21.8680   -0.8702   -8.3950 C   0  0  0  0  0  0  0  0  0  0  0  0
   22.1280   -1.1131   -9.7836 C   0  0  0  0  0  0  0  0  0  0  0  0
   21.1769   -1.7958  -10.5554 C   0  0  0  0  0  0  0  0  0  0  0  0
   21.3586   -2.0765  -11.8878 C   0  0  0  0  0  0  0  0  0  0  0  0
   20.2784   -2.8027  -12.5883 C   0  0  0  0  0  0  0  0  0  0  0  0
   19.9384   -4.0545  -11.9728 N   0  0  0  0  0  0  0  0  0  0  0  0
   22.5238   -1.6613  -12.4580 C   0  0  0  0  0  0  0  0  0  0  0  0
   23.4588   -0.9962  -11.7217 C   0  0  0  0  0  0  0  0  0  0  0  0
   23.2998   -0.6925  -10.3482 C   0  0  0  0  0  0  0  0  0  0  0  0
   24.3140   -0.0137   -9.7016 O   0  0  0  0  0  0  0  0  0  0  0  0
   25.6475   -0.2815   -9.8964 C   0  0  0  0  0  0  0  0  0  0  0  0
   26.4208   -0.7403   -8.8133 C   0  0  0  0  0  0  0  0  0  0  0  0
   27.7559   -1.0089   -8.9908 C   0  0  0  0  0  0  0  0  0  0  0  0
   28.5060   -1.4522   -7.9478 F   0  0  0  0  0  0  0  0  0  0  0  0
   28.3359   -0.8298  -10.2244 C   0  0  0  0  0  0  0  0  0  0  0  0
   27.5865   -0.3821  -11.2854 C   0  0  0  0  0  0  0  0  0  0  0  0
   28.1181   -0.1882  -12.5319 F   0  0  0  0  0  0  0  0  0  0  0  0
   26.2524   -0.1107  -11.1187 C   0  0  0  0  0  0  0  0  0  0  0  0
  1  2  3  0
  2  3  1  0
  3  4  2  0
  4  5  1  0
  5  6  1  0
  6  7  1  6
  5  8  2  0
  8  9  1  0
  9 10  2  0
 10 11  1  0
 11 12  1  0
 12 13  2  0
 13 14  1  0
 14 15  1  0
 14 16  2  0
 16 17  1  0
 17 18  1  0
 17 19  2  0
 10  3  1  0
 19 12  1  0
M  END
$$$$
