_rank18
     RDKit          3D

 19 20  0  0  0  0  0  0  0  0999 V2000
   23.7411   -3.0252  -13.3962 N   0  0  0  0  0  0  0  0  0  0  0  0
   23.2497   -2.4095  -12.5614 C   0  0  0  0  0  0  0  0  0  0  0  0
   22.6569   -1.6271  -11.5167 C   0  0  0  0  0  0  0  0  0  0  0  0
   21.3608   -1.9314  -11.0764 C   0  0  0  0  0  0  0  0  0  0  0  0
   20.7214   -1.2212  -10.0895 C   0  0  0  0  0  0  0  0  0  0  0  0
   19.3551   -1.6444   -9.7167 C   0  0  0  0  0  0  0  0  0  0  0  0
   19.3063   -2.4216   -8.5105 N   0  0  0  0  0  0  0  0  0  0  0  0
   21.4007   -0.1805   -9.5320 C   0  0  0  0  0  0  0  0  0  0  0  0
   22.6615    0.1284   -9.9485 C   0  0  0  0  0  0  0  0  0  0  0  0
   23.3457   -0.5846  -10.9622 C   0  0  0  0  0  0  0  0  0  0  0  0
   24.6219   -0.1824  -11.3041 O   0  0  0  0  0  0  0  0  0  0  0  0
   25.6715   -0.1617  -10.4177 C   0  0  0  0  0  0  0  0  0  0  0  0
   25.7415   -1.1460   -9.4137 C   0  0  0  0  0  0  0  0  0  0  0  0
   26.7823   -1.1369   -8.5177 C   0  0  0  0  0  0  0  0  0  0  0  0
   26.8537   -2.0855   -7.5470 F   0  0  0  0  0  0  0  0  0  0  0  0
   27.7542   -0.1679   -8.6014 C   0  0  0  0  0  0  0  0  0  0  0  0
   27.6913    0.7955   -9.5790 C   0  0  0  0  0  0  0  0  0  0  0  0
   28.6340    1.7804   -9.7031 F   0  0  0  0  0  0  0  0  0  0  0  0
   26.6559    0.7955  -10.4786 C   0  0  0  0  0  0  0  0  0  0  0  0
  1  2  3  0
  2  3  1  0
  3  4  2  0
  4  5  1  0
  5  6  1  0
  6  7  1  6
  5  8  2  0
  8  9  1  0
  9 10  2  0
 10 11  1  0
 11 12  1  0
 12 13  2  0
 13 14  1  0
 14 15  1  0
 14 16  2  0
 16 17  1  0
 17 18  1  0
 17 19  2  0
 10  3  1  0
 19 12  1  0
M  END
$$$$
