_rank8
     RDKit          3D

 19 20  0  0  0  0  0  0  0  0999 V2000
   26.7616   -1.3229   -7.9132 N   0  0  0  0  0  0  0  0  0  0  0  0
   26.4196   -0.8963   -8.9225 C   0  0  0  0  0  0  0  0  0  0  0  0
   25.9688   -0.3694  -10.1770 C   0  0  0  0  0  0  0  0  0  0  0  0
   26.9093   -0.0035  -11.1506 C   0  0  0  0  0  0  0  0  0  0  0  0
   26.5562    0.5191  -12.3710 C   0  0  0  0  0  0  0  0  0  0  0  0
   27.6449    0.8640  -13.3094 C   0  0  0  0  0  0  0  0  0  0  0  0
   28.2196    2.1573  -13.0680 N   0  0  0  0  0  0  0  0  0  0  0  0
   25.2263    0.6777  -12.6187 C   0  0  0  0  0  0  0  0  0  0  0  0
   24.2989    0.3268  -11.6830 C   0  0  0  0  0  0  0  0  0  0  0  0
   24.6322   -0.2139  -10.4178 C   0  0  0  0  0  0  0  0  0  0  0  0
   23.6086   -0.5333   -9.5473 O   0  0  0  0  0  0  0  0  0  0  0  0
   22.2851   -0.5650   -9.9150 C   0  0  0  0  0  0  0  0  0  0  0  0
   21.8107   -1.6480  -10.6789 C   0  0  0  0  0  0  0  0  0  0  0  0
   20.4913   -1.6926  -11.0576 C   0  0  0  0  0  0  0  0  0  0  0  0
   20.0292   -2.7365  -11.7950 F   0  0  0  0  0  0  0  0  0  0  0  0
   19.6355   -0.6809  -10.6909 C   0  0  0  0  0  0  0  0  0  0  0  0
   20.0926    0.3789   -9.9455 C   0  0  0  0  0  0  0  0  0  0  0  0
   19.2799    1.4096   -9.5563 F   0  0  0  0  0  0  0  0  0  0  0  0
   21.4084    0.4332   -9.5624 C   0  0  0  0  0  0  0  0  0  0  0  0
  1  2  3  0
  2  3  1  0
  3  4  2  0
  4  5  1  0
  5  6  1  0
  6  7  1  6
  5  8  2  0
  8  9  1  0
  9 10  2  0
 10 11  1  0
 11 12  1  0
 12 13  2  0
 13 14  1  0
 14 15  1  0
 14 16  2  0
 16 17  1  0
 17 18  1  0
 17 19  2  0
 10  3  1  0
 19 12  1  0
M  END
$$$$
