_rank4
     RDKit          3D

 19 20  0  0  0  0  0  0  0  0999 V2000
   25.8642    0.5634  -13.8387 N   0  0  0  0  0  0  0  0  0  0  0  0
   25.6625    0.3366  -12.7317 C   0  0  0  0  0  0  0  0  0  0  0  0
   25.4352    0.0558  -11.3445 C   0  0  0  0  0  0  0  0  0  0  0  0
   26.4629    0.2793  -10.4170 C   0  0  0  0  0  0  0  0  0  0  0  0
   26.3257    0.0236   -9.0742 C   0  0  0  0  0  0  0  0  0  0  0  0
   27.4856    0.3028   -8.2017 C   0  0  0  0  0  0  0  0  0  0  0  0
   28.1987   -0.8779   -7.8032 N   0  0  0  0  0  0  0  0  0  0  0  0
   25.1272   -0.4683   -8.6537 C   0  0  0  0  0  0  0  0  0  0  0  0
   24.1176   -0.6910   -9.5425 C   0  0  0  0  0  0  0  0  0  0  0  0
   24.2292   -0.4372  -10.9307 C   0  0  0  0  0  0  0  0  0  0  0  0
   23.1405   -0.7009  -11.7385 O   0  0  0  0  0  0  0  0  0  0  0  0
   21.8433   -0.6949  -11.2855 C   0  0  0  0  0  0  0  0  0  0  0  0
   21.2908    0.5060  -10.8018 C   0  0  0  0  0  0  0  0  0  0  0  0
   19.9968    0.5278  -10.3420 C   0  0  0  0  0  0  0  0  0  0  0  0
   19.4595    1.6852   -9.8743 F   0  0  0  0  0  0  0  0  0  0  0  0
   19.2426   -0.6218  -10.3543 C   0  0  0  0  0  0  0  0  0  0  0  0
   19.7763   -1.7971  -10.8250 C   0  0  0  0  0  0  0  0  0  0  0  0
   19.0659   -2.9668  -10.8575 F   0  0  0  0  0  0  0  0  0  0  0  0
   21.0676   -1.8296  -11.2862 C   0  0  0  0  0  0  0  0  0  0  0  0
  1  2  3  0
  2  3  1  0
  3  4  2  0
  4  5  1  0
  5  6  1  0
  6  7  1  6
  5  8  2  0
  8  9  1  0
  9 10  2  0
 10 11  1  0
 11 12  1  0
 12 13  2  0
 13 14  1  0
 14 15  1  0
 14 16  2  0
 16 17  1  0
 17 18  1  0
 17 19  2  0
 10  3  1  0
 19 12  1  0
M  END
$$$$
