_rank11
     RDKit          3D

 19 20  0  0  0  0  0  0  0  0999 V2000
   25.7045   -0.5775   -7.3043 N   0  0  0  0  0  0  0  0  0  0  0  0
   25.6193   -0.4055   -8.4361 C   0  0  0  0  0  0  0  0  0  0  0  0
   25.5374   -0.1949   -9.8516 C   0  0  0  0  0  0  0  0  0  0  0  0
   26.6761   -0.3910  -10.6461 C   0  0  0  0  0  0  0  0  0  0  0  0
   26.6799   -0.1981  -12.0063 C   0  0  0  0  0  0  0  0  0  0  0  0
   27.9466   -0.4394  -12.7288 C   0  0  0  0  0  0  0  0  0  0  0  0
   29.1006   -0.4419  -11.8746 N   0  0  0  0  0  0  0  0  0  0  0  0
   25.5117    0.2014  -12.5814 C   0  0  0  0  0  0  0  0  0  0  0  0
   24.3955    0.3963  -11.8233 C   0  0  0  0  0  0  0  0  0  0  0  0
   24.3609    0.2055  -10.4210 C   0  0  0  0  0  0  0  0  0  0  0  0
   23.1731    0.4332   -9.7540 O   0  0  0  0  0  0  0  0  0  0  0  0
   21.9878   -0.1746  -10.0909 C   0  0  0  0  0  0  0  0  0  0  0  0
   20.7752    0.4117   -9.6818 C   0  0  0  0  0  0  0  0  0  0  0  0
   19.5821   -0.1855  -10.0073 C   0  0  0  0  0  0  0  0  0  0  0  0
   18.4091    0.3774   -9.6144 F   0  0  0  0  0  0  0  0  0  0  0  0
   19.5724   -1.3541  -10.7317 C   0  0  0  0  0  0  0  0  0  0  0  0
   20.7527   -1.9313  -11.1337 C   0  0  0  0  0  0  0  0  0  0  0  0
   20.7948   -3.0935  -11.8560 F   0  0  0  0  0  0  0  0  0  0  0  0
   21.9497   -1.3431  -10.8136 C   0  0  0  0  0  0  0  0  0  0  0  0
  1  2  3  0
  2  3  1  0
  3  4  2  0
  4  5  1  0
  5  6  1  0
  6  7  1  6
  5  8  2  0
  8  9  1  0
  9 10  2  0
 10 11  1  0
 11 12  1  0
 12 13  2  0
 13 14  1  0
 14 15  1  0
 14 16  2  0
 16 17  1  0
 17 18  1  0
 17 19  2  0
 10  3  1  0
 19 12  1  0
M  END
$$$$
