_rank9
     RDKit          3D

 19 20  0  0  0  0  0  0  0  0999 V2000
   26.5046   -1.0277   -7.5863 N   0  0  0  0  0  0  0  0  0  0  0  0
   26.2282   -0.7179   -8.6565 C   0  0  0  0  0  0  0  0  0  0  0  0
   25.8734   -0.3539   -9.9968 C   0  0  0  0  0  0  0  0  0  0  0  0
   26.8817   -0.0153  -10.9105 C   0  0  0  0  0  0  0  0  0  0  0  0
   26.6207    0.3554  -12.2073 C   0  0  0  0  0  0  0  0  0  0  0  0
   27.7739    0.6879  -13.0701 C   0  0  0  0  0  0  0  0  0  0  0  0
   28.6672   -0.4161  -13.2812 N   0  0  0  0  0  0  0  0  0  0  0  0
   25.3153    0.3865  -12.5949 C   0  0  0  0  0  0  0  0  0  0  0  0
   24.3229    0.0601  -11.7190 C   0  0  0  0  0  0  0  0  0  0  0  0
   24.5608   -0.3256  -10.3778 C   0  0  0  0  0  0  0  0  0  0  0  0
   23.4775   -0.6347   -9.5788 O   0  0  0  0  0  0  0  0  0  0  0  0
   22.1861   -0.6923  -10.0446 C   0  0  0  0  0  0  0  0  0  0  0  0
   21.4070    0.4801  -10.0544 C   0  0  0  0  0  0  0  0  0  0  0  0
   20.1133    0.4383  -10.5134 C   0  0  0  0  0  0  0  0  0  0  0  0
   19.3578    1.5679  -10.5247 F   0  0  0  0  0  0  0  0  0  0  0  0
   19.5802   -0.7469  -10.9625 C   0  0  0  0  0  0  0  0  0  0  0  0
   20.3356   -1.8946  -10.9552 C   0  0  0  0  0  0  0  0  0  0  0  0
   19.8500   -3.0978  -11.3917 F   0  0  0  0  0  0  0  0  0  0  0  0
   21.6286   -1.8637  -10.4986 C   0  0  0  0  0  0  0  0  0  0  0  0
  1  2  3  0
  2  3  1  0
  3  4  2  0
  4  5  1  0
  5  6  1  0
  6  7  1  6
  5  8  2  0
  8  9  1  0
  9 10  2  0
 10 11  1  0
 11 12  1  0
 12 13  2  0
 13 14  1  0
 14 15  1  0
 14 16  2  0
 16 17  1  0
 17 18  1  0
 17 19  2  0
 10  3  1  0
 19 12  1  0
M  END
$$$$
