_rank2
     RDKit          3D

 18 20  0  0  0  0  0  0  0  0999 V2000
   27.2336    1.1992   -8.2474 C   0  0  0  0  0  0  0  0  0  0  0  0
   26.4618   -0.1266   -9.1600 S   0  0  1  0  0  6  0  0  0  0  0  0
   27.5254   -0.8569   -9.8880 O   0  0  0  0  0  0  0  0  0  0  0  0
   25.8001   -1.0475   -8.1786 O   0  0  0  0  0  0  0  0  0  0  0  0
   25.2880    0.5968  -10.2583 C   0  0  1  0  0  0  0  0  0  0  0  0
   26.0609    1.1758  -11.4444 C   0  0  0  0  0  0  0  0  0  0  0  0
   26.4042   -0.0435  -12.2504 C   0  0  0  0  0  0  0  0  0  0  0  0
   25.3623   -1.0995  -11.8864 C   0  0  0  0  0  0  0  0  0  0  0  0
   24.4331   -0.4191  -10.9567 C   0  0  2  0  0  0  0  0  0  0  0  0
   23.4480    0.3270  -11.7446 N   0  0  0  0  0  0  0  0  0  0  0  0
   22.2398    0.2074  -10.9980 C   0  0  0  0  0  0  0  0  0  0  0  0
   21.0428    0.8880  -11.1551 C   0  0  0  0  0  0  0  0  0  0  0  0
   20.0009    0.5885  -10.2908 C   0  0  0  0  0  0  0  0  0  0  0  0
   18.8409    1.2484  -10.4433 F   0  0  0  0  0  0  0  0  0  0  0  0
   20.1463   -0.3619   -9.2981 C   0  0  0  0  0  0  0  0  0  0  0  0
   21.3391   -1.0325   -9.1502 C   0  0  0  0  0  0  0  0  0  0  0  0
   22.4033   -0.7446  -10.0126 C   0  0  0  0  0  0  0  0  0  0  0  0
   23.6976   -1.2364  -10.1169 O   0  0  0  0  0  0  0  0  0  0  0  0
  2  1  1  1
  2  3  2  0
  2  4  2  0
  5  2  1  1
  5  6  1  0
  6  7  1  6
  7  8  1  1
  8  9  1  1
  9 10  1  6
 10 11  1  0
 11 12  2  0
 12 13  1  0
 13 14  1  0
 13 15  2  0
 15 16  1  0
 16 17  2  0
 17 18  1  0
  9  5  1  0
 17 11  1  0
  9 18  1  0
M  END
$$$$
