_rank17
     RDKit          3D

 18 20  0  0  0  0  0  0  0  0999 V2000
   21.2997   -0.0670   -8.2366 C   0  0  0  0  0  0  0  0  0  0  0  0
   20.8660   -1.0421   -9.6674 S   0  0  1  0  0  6  0  0  0  0  0  0
   19.9251   -2.0991   -9.2291 O   0  0  0  0  0  0  0  0  0  0  0  0
   20.1877   -0.1438  -10.6584 O   0  0  0  0  0  0  0  0  0  0  0  0
   22.3568   -1.7166  -10.3230 C   0  0  1  0  0  0  0  0  0  0  0  0
   21.9865   -2.5475  -11.5525 C   0  0  0  0  0  0  0  0  0  0  0  0
   21.7301   -1.5031  -12.6002 C   0  0  0  0  0  0  0  0  0  0  0  0
   22.5183   -0.2677  -12.1691 C   0  0  0  0  0  0  0  0  0  0  0  0
   23.2449   -0.6815  -10.9479 C   0  0  2  0  0  0  0  0  0  0  0  0
   24.4769   -1.3671  -11.3479 N   0  0  0  0  0  0  0  0  0  0  0  0
   25.4297   -0.9778  -10.3619 C   0  0  0  0  0  0  0  0  0  0  0  0
   26.6946   -1.4887  -10.1172 C   0  0  0  0  0  0  0  0  0  0  0  0
   27.4375   -0.9327   -9.0870 C   0  0  0  0  0  0  0  0  0  0  0  0
   28.6633   -1.4281   -8.8501 F   0  0  0  0  0  0  0  0  0  0  0  0
   26.9354    0.1029   -8.3219 C   0  0  0  0  0  0  0  0  0  0  0  0
   25.6781    0.6035   -8.5727 C   0  0  0  0  0  0  0  0  0  0  0  0
   24.9121    0.0558   -9.6084 C   0  0  0  0  0  0  0  0  0  0  0  0
   23.6425    0.3342  -10.0968 O   0  0  0  0  0  0  0  0  0  0  0  0
  2  1  1  1
  2  3  2  0
  2  4  2  0
  5  2  1  6
  5  6  1  0
  6  7  1  6
  7  8  1  1
  8  9  1  1
  9 10  1  6
 10 11  1  0
 11 12  2  0
 12 13  1  0
 13 14  1  0
 13 15  2  0
 15 16  1  0
 16 17  2  0
 17 18  1  0
  9  5  1  0
 17 11  1  0
  9 18  1  0
M  END
$$$$
