_rank4
     RDKit          3D

 18 20  0  0  0  0  0  0  0  0999 V2000
   26.0810   -0.9392   -8.2722 C   0  0  0  0  0  0  0  0  0  0  0  0
   26.8271    0.2907   -9.3290 S   0  0  1  0  0  6  0  0  0  0  0  0
   27.3724    1.3628   -8.4642 O   0  0  0  0  0  0  0  0  0  0  0  0
   27.9442   -0.3602  -10.0889 O   0  0  0  0  0  0  0  0  0  0  0  0
   25.5736    0.8912  -10.4131 C   0  0  1  0  0  0  0  0  0  0  0  0
   26.2632    1.6971  -11.5152 C   0  0  0  0  0  0  0  0  0  0  0  0
   26.8385    0.6311  -12.4022 C   0  0  0  0  0  0  0  0  0  0  0  0
   25.9909   -0.6179  -12.1686 C   0  0  0  0  0  0  0  0  0  0  0  0
   24.9313   -0.1934  -11.2265 C   0  0  2  0  0  0  0  0  0  0  0  0
   23.8510    0.4353  -11.9918 N   0  0  0  0  0  0  0  0  0  0  0  0
   22.6636    0.0424  -11.3083 C   0  0  0  0  0  0  0  0  0  0  0  0
   21.3696    0.5151  -11.4595 C   0  0  0  0  0  0  0  0  0  0  0  0
   20.3744   -0.0355  -10.6665 C   0  0  0  0  0  0  0  0  0  0  0  0
   19.1204    0.4228  -10.8133 F   0  0  0  0  0  0  0  0  0  0  0  0
   20.6593   -1.0288   -9.7488 C   0  0  0  0  0  0  0  0  0  0  0  0
   21.9476   -1.4915   -9.6061 C   0  0  0  0  0  0  0  0  0  0  0  0
   22.9667   -0.9486  -10.3973 C   0  0  0  0  0  0  0  0  0  0  0  0
   24.3300   -1.1963  -10.4870 O   0  0  0  0  0  0  0  0  0  0  0  0
  2  1  1  1
  2  3  2  0
  2  4  2  0
  5  2  1  1
  5  6  1  0
  6  7  1  6
  7  8  1  1
  8  9  1  1
  9 10  1  6
 10 11  1  0
 11 12  2  0
 12 13  1  0
 13 14  1  0
 13 15  2  0
 15 16  1  0
 16 17  2  0
 17 18  1  0
  9  5  1  0
 17 11  1  0
  9 18  1  0
M  END
$$$$
