_rank3
     RDKit          3D

 18 20  0  0  0  0  0  0  0  0999 V2000
   28.0483    0.5018   -9.2225 C   0  0  0  0  0  0  0  0  0  0  0  0
   26.4910   -0.3470   -9.0211 S   0  0  1  0  0  6  0  0  0  0  0  0
   26.6520   -1.7231   -9.5453 O   0  0  0  0  0  0  0  0  0  0  0  0
   26.1726   -0.4003   -7.5566 O   0  0  0  0  0  0  0  0  0  0  0  0
   25.2715    0.5604   -9.9136 C   0  0  1  0  0  0  0  0  0  0  0  0
   26.0044    1.4935  -10.8788 C   0  0  0  0  0  0  0  0  0  0  0  0
   26.4445    0.5664  -11.9747 C   0  0  0  0  0  0  0  0  0  0  0  0
   25.4845   -0.6210  -11.9366 C   0  0  0  0  0  0  0  0  0  0  0  0
   24.5008   -0.2870  -10.8824 C   0  0  2  0  0  0  0  0  0  0  0  0
   23.4659    0.5716  -11.4652 N   0  0  0  0  0  0  0  0  0  0  0  0
   22.2662    0.1672  -10.8104 C   0  0  0  0  0  0  0  0  0  0  0  0
   21.0215    0.7768  -10.8091 C   0  0  0  0  0  0  0  0  0  0  0  0
   20.0007    0.1798  -10.0853 C   0  0  0  0  0  0  0  0  0  0  0  0
   18.7945    0.7708  -10.0842 F   0  0  0  0  0  0  0  0  0  0  0  0
   20.2130   -0.9911   -9.3824 C   0  0  0  0  0  0  0  0  0  0  0  0
   21.4527   -1.5888   -9.3899 C   0  0  0  0  0  0  0  0  0  0  0  0
   22.4965   -1.0019  -10.1146 C   0  0  0  0  0  0  0  0  0  0  0  0
   23.8253   -1.3522  -10.3139 O   0  0  0  0  0  0  0  0  0  0  0  0
  2  1  1  1
  2  3  2  0
  2  4  2  0
  5  2  1  6
  5  6  1  0
  6  7  1  6
  7  8  1  1
  8  9  1  1
  9 10  1  6
 10 11  1  0
 11 12  2  0
 12 13  1  0
 13 14  1  0
 13 15  2  0
 15 16  1  0
 16 17  2  0
 17 18  1  0
  9  5  1  0
 17 11  1  0
  9 18  1  0
M  END
$$$$
