_rank16
     RDKit          3D

 18 20  0  0  0  0  0  0  0  0999 V2000
   21.3826    0.6742   -9.7249 C   0  0  0  0  0  0  0  0  0  0  0  0
   21.3513   -1.1087   -9.8046 S   0  0  1  0  0  6  0  0  0  0  0  0
   21.1421   -1.6216   -8.4307 O   0  0  0  0  0  0  0  0  0  0  0  0
   20.2012   -1.5185  -10.6754 O   0  0  0  0  0  0  0  0  0  0  0  0
   22.8916   -1.6379  -10.4789 C   0  0  1  0  0  0  0  0  0  0  0  0
   22.6057   -2.2740  -11.8403 C   0  0  0  0  0  0  0  0  0  0  0  0
   22.3677   -1.0843  -12.7247 C   0  0  0  0  0  0  0  0  0  0  0  0
   23.0963    0.0858  -12.0666 C   0  0  0  0  0  0  0  0  0  0  0  0
   23.7764   -0.4977  -10.8886 C   0  0  2  0  0  0  0  0  0  0  0  0
   25.0464   -1.0839  -11.3259 N   0  0  0  0  0  0  0  0  0  0  0  0
   25.9388   -0.8325  -10.2434 C   0  0  0  0  0  0  0  0  0  0  0  0
   27.2056   -1.3465  -10.0159 C   0  0  0  0  0  0  0  0  0  0  0  0
   27.8813   -0.9422   -8.8747 C   0  0  0  0  0  0  0  0  0  0  0  0
   29.1090   -1.4406   -8.6545 F   0  0  0  0  0  0  0  0  0  0  0  0
   27.3119   -0.0510   -7.9849 C   0  0  0  0  0  0  0  0  0  0  0  0
   26.0533    0.4539   -8.2197 C   0  0  0  0  0  0  0  0  0  0  0  0
   25.3546    0.0581   -9.3661 C   0  0  0  0  0  0  0  0  0  0  0  0
   24.1017    0.3807   -9.8705 O   0  0  0  0  0  0  0  0  0  0  0  0
  2  1  1  1
  2  3  2  0
  2  4  2  0
  5  2  1  6
  5  6  1  0
  6  7  1  6
  7  8  1  1
  8  9  1  1
  9 10  1  6
 10 11  1  0
 11 12  2  0
 12 13  1  0
 13 14  1  0
 13 15  2  0
 15 16  1  0
 16 17  2  0
 17 18  1  0
  9  5  1  0
 17 11  1  0
  9 18  1  0
M  END
$$$$
