_rank5
     RDKit          3D

 18 20  0  0  0  0  0  0  0  0999 V2000
   26.5949   -1.5484   -8.9354 C   0  0  0  0  0  0  0  0  0  0  0  0
   26.9899    0.1723   -9.1983 S   0  0  1  0  0  6  0  0  0  0  0  0
   27.1611    0.8074   -7.8709 O   0  0  0  0  0  0  0  0  0  0  0  0
   28.2788    0.2457   -9.9614 O   0  0  0  0  0  0  0  0  0  0  0  0
   25.6607    0.8903  -10.1065 C   0  0  1  0  0  0  0  0  0  0  0  0
   26.2456    1.9995  -10.9823 C   0  0  0  0  0  0  0  0  0  0  0  0
   26.8983    1.2379  -12.0995 C   0  0  0  0  0  0  0  0  0  0  0  0
   26.1778   -0.1070  -12.1733 C   0  0  0  0  0  0  0  0  0  0  0  0
   25.1049   -0.0252  -11.1571 C   0  0  2  0  0  0  0  0  0  0  0  0
   23.9528    0.6604  -11.7491 N   0  0  0  0  0  0  0  0  0  0  0  0
   22.8238    0.0020  -11.1805 C   0  0  0  0  0  0  0  0  0  0  0  0
   21.4878    0.3692  -11.2140 C   0  0  0  0  0  0  0  0  0  0  0  0
   20.5676   -0.4491  -10.5769 C   0  0  0  0  0  0  0  0  0  0  0  0
   19.2729   -0.0930  -10.6096 F   0  0  0  0  0  0  0  0  0  0  0  0
   20.9660   -1.6007   -9.9249 C   0  0  0  0  0  0  0  0  0  0  0  0
   22.2952   -1.9568   -9.8972 C   0  0  0  0  0  0  0  0  0  0  0  0
   23.2399   -1.1440  -10.5344 C   0  0  0  0  0  0  0  0  0  0  0  0
   24.6181   -1.2294  -10.6806 O   0  0  0  0  0  0  0  0  0  0  0  0
  2  1  1  1
  2  3  2  0
  2  4  2  0
  5  2  1  6
  5  6  1  0
  6  7  1  6
  7  8  1  1
  8  9  1  1
  9 10  1  6
 10 11  1  0
 11 12  2  0
 12 13  1  0
 13 14  1  0
 13 15  2  0
 15 16  1  0
 16 17  2  0
 17 18  1  0
  9  5  1  0
 17 11  1  0
  9 18  1  0
M  END
$$$$
