_rank6
     RDKit          3D

 18 20  0  0  0  0  0  0  0  0999 V2000
   25.8989   -0.5000   -7.6639 C   0  0  0  0  0  0  0  0  0  0  0  0
   26.7305    0.0941   -9.1273 S   0  0  1  0  0  6  0  0  0  0  0  0
   27.6212    1.2069   -8.7240 O   0  0  0  0  0  0  0  0  0  0  0  0
   27.5505   -1.0291   -9.6886 O   0  0  0  0  0  0  0  0  0  0  0  0
   25.4920    0.6201  -10.2661 C   0  0  1  0  0  0  0  0  0  0  0  0
   26.2032    1.2644  -11.4571 C   0  0  0  0  0  0  0  0  0  0  0  0
   26.7238    0.0803  -12.2193 C   0  0  0  0  0  0  0  0  0  0  0  0
   25.8269   -1.0963  -11.8393 C   0  0  0  0  0  0  0  0  0  0  0  0
   24.7961   -0.5217  -10.9461 C   0  0  2  0  0  0  0  0  0  0  0  0
   23.7352    0.0612  -11.7724 N   0  0  0  0  0  0  0  0  0  0  0  0
   22.5396   -0.1996  -11.0417 C   0  0  0  0  0  0  0  0  0  0  0  0
   21.2650    0.3079  -11.2388 C   0  0  0  0  0  0  0  0  0  0  0  0
   20.2560   -0.1052  -10.3823 C   0  0  0  0  0  0  0  0  0  0  0  0
   19.0209    0.3868  -10.5736 F   0  0  0  0  0  0  0  0  0  0  0  0
   20.5085   -0.9984   -9.3584 C   0  0  0  0  0  0  0  0  0  0  0  0
   21.7777   -1.4968   -9.1708 C   0  0  0  0  0  0  0  0  0  0  0  0
   22.8103   -1.0921  -10.0248 C   0  0  0  0  0  0  0  0  0  0  0  0
   24.1610   -1.4068  -10.0932 O   0  0  0  0  0  0  0  0  0  0  0  0
  2  1  1  1
  2  3  2  0
  2  4  2  0
  5  2  1  1
  5  6  1  0
  6  7  1  6
  7  8  1  1
  8  9  1  1
  9 10  1  6
 10 11  1  0
 11 12  2  0
 12 13  1  0
 13 14  1  0
 13 15  2  0
 15 16  1  0
 16 17  2  0
 17 18  1  0
  9  5  1  0
 17 11  1  0
  9 18  1  0
M  END
$$$$
