_rank11
     RDKit          3D

 18 20  0  0  0  0  0  0  0  0999 V2000
   27.7504   -0.5294  -10.2725 C   0  0  0  0  0  0  0  0  0  0  0  0
   26.4131   -0.3486   -9.1041 S   0  0  1  0  0  6  0  0  0  0  0  0
   25.9131   -1.7030   -8.7721 O   0  0  0  0  0  0  0  0  0  0  0  0
   26.9561    0.3045   -7.8681 O   0  0  0  0  0  0  0  0  0  0  0  0
   25.1718    0.6442   -9.8661 C   0  0  1  0  0  0  0  0  0  0  0  0
   25.8816    1.7061  -10.7076 C   0  0  0  0  0  0  0  0  0  0  0  0
   26.3287    0.9350  -11.9158 C   0  0  0  0  0  0  0  0  0  0  0  0
   25.3889   -0.2641  -12.0251 C   0  0  0  0  0  0  0  0  0  0  0  0
   24.4079   -0.0853  -10.9314 C   0  0  2  0  0  0  0  0  0  0  0  0
   23.3544    0.8227  -11.3934 N   0  0  0  0  0  0  0  0  0  0  0  0
   22.1667    0.3167  -10.7894 C   0  0  0  0  0  0  0  0  0  0  0  0
   20.9121    0.8992  -10.7030 C   0  0  0  0  0  0  0  0  0  0  0  0
   19.9070    0.1965  -10.0562 C   0  0  0  0  0  0  0  0  0  0  0  0
   18.6911    0.7613   -9.9727 F   0  0  0  0  0  0  0  0  0  0  0  0
   20.1441   -1.0509   -9.5107 C   0  0  0  0  0  0  0  0  0  0  0  0
   21.3935   -1.6210   -9.6016 C   0  0  0  0  0  0  0  0  0  0  0  0
   22.4218   -0.9277  -10.2507 C   0  0  0  0  0  0  0  0  0  0  0  0
   23.7547   -1.2263  -10.5006 O   0  0  0  0  0  0  0  0  0  0  0  0
  2  1  1  6
  2  3  2  0
  2  4  2  0
  5  2  1  6
  5  6  1  0
  6  7  1  6
  7  8  1  1
  8  9  1  1
  9 10  1  6
 10 11  1  0
 11 12  2  0
 12 13  1  0
 13 14  1  0
 13 15  2  0
 15 16  1  0
 16 17  2  0
 17 18  1  0
  9  5  1  0
 17 11  1  0
  9 18  1  0
M  END
$$$$
