_rank18
     RDKit          3D

 12 13  0  0  0  0  0  0  0  0999 V2000
   20.3870   -2.5528   -8.6808 N   0  0  0  0  0  0  0  0  0  0  0  0
   21.1754   -2.1415   -9.4465 C   0  0  0  0  0  0  0  0  0  0  0  0
   22.1484   -1.6618  -10.3859 C   0  0  0  0  0  0  0  0  0  0  0  0
   21.7943   -1.4525  -11.7146 C   0  0  0  0  0  0  0  0  0  0  0  0
   22.7487   -0.9909  -12.5973 C   0  0  0  0  0  0  0  0  0  0  0  0
   22.4096   -0.7854  -13.8921 F   0  0  0  0  0  0  0  0  0  0  0  0
   24.0269   -0.7498  -12.1381 C   0  0  0  0  0  0  0  0  0  0  0  0
   24.4002   -0.9499  -10.8267 C   0  0  0  0  0  0  0  0  0  0  0  0
   25.7923   -0.6817  -10.3510 C   0  0  1  0  0  0  0  0  0  0  0  0
   26.7426   -0.1905  -11.3206 C   0  0  0  0  0  0  0  0  0  0  0  0
   26.1675    0.7310  -10.3985 O   0  0  0  0  0  0  0  0  0  0  0  0
   23.4353   -1.4120   -9.9542 C   0  0  0  0  0  0  0  0  0  0  0  0
  1  2  3  0
  2  3  1  0
  3  4  2  0
  4  5  1  0
  5  6  1  0
  5  7  2  0
  7  8  1  0
  9  8  1  6
  9 10  1  0
 10 11  1  1
  8 12  2  0
 12  3  1  0
 11  9  1  0
M  END
$$$$
