_rank8
     RDKit          3D

 12 13  0  0  0  0  0  0  0  0999 V2000
   27.9539    0.4712   -6.9774 N   0  0  0  0  0  0  0  0  0  0  0  0
   27.3044    0.2591   -7.9314 C   0  0  0  0  0  0  0  0  0  0  0  0
   26.5276   -0.0162   -9.1061 C   0  0  0  0  0  0  0  0  0  0  0  0
   27.1385   -0.0576  -10.3550 C   0  0  0  0  0  0  0  0  0  0  0  0
   26.3690   -0.3243  -11.4685 C   0  0  0  0  0  0  0  0  0  0  0  0
   26.9583   -0.3660  -12.6869 F   0  0  0  0  0  0  0  0  0  0  0  0
   25.0158   -0.5425  -11.3125 C   0  0  0  0  0  0  0  0  0  0  0  0
   24.3893   -0.5063  -10.0856 C   0  0  0  0  0  0  0  0  0  0  0  0
   22.9204   -0.7459   -9.9403 C   0  0  1  0  0  0  0  0  0  0  0  0
   22.0824   -0.4436  -11.0764 C   0  0  0  0  0  0  0  0  0  0  0  0
   22.4090   -1.8047  -10.8098 O   0  0  0  0  0  0  0  0  0  0  0  0
   25.1713   -0.2383   -8.9798 C   0  0  0  0  0  0  0  0  0  0  0  0
  1  2  3  0
  2  3  1  0
  3  4  2  0
  4  5  1  0
  5  6  1  0
  5  7  2  0
  7  8  1  0
  9  8  1  6
  9 10  1  0
 10 11  1  1
  8 12  2  0
 12  3  1  0
 11  9  1  0
M  END
$$$$
