_rank16
     RDKit          3D

 12 13  0  0  0  0  0  0  0  0999 V2000
   24.9829    0.2576  -10.0484 N   0  0  0  0  0  0  0  0  0  0  0  0
   23.9009   -0.1777  -10.1778 C   0  0  0  0  0  0  0  0  0  0  0  0
   22.5761   -0.6987  -10.3583 C   0  0  0  0  0  0  0  0  0  0  0  0
   22.3630   -2.0729  -10.3902 C   0  0  0  0  0  0  0  0  0  0  0  0
   21.0797   -2.5477  -10.5650 C   0  0  0  0  0  0  0  0  0  0  0  0
   20.8663   -3.8846  -10.5968 F   0  0  0  0  0  0  0  0  0  0  0  0
   20.0438   -1.6472  -10.7032 C   0  0  0  0  0  0  0  0  0  0  0  0
   20.2313   -0.2822  -10.6747 C   0  0  0  0  0  0  0  0  0  0  0  0
   19.0930    0.6756  -10.8267 C   0  0  1  0  0  0  0  0  0  0  0  0
   18.3925    1.0706   -9.6276 C   0  0  0  0  0  0  0  0  0  0  0  0
   19.3317    1.9757  -10.2010 O   0  0  0  0  0  0  0  0  0  0  0  0
   21.5206    0.1792  -10.4992 C   0  0  0  0  0  0  0  0  0  0  0  0
  1  2  3  0
  2  3  1  0
  3  4  2  0
  4  5  1  0
  5  6  1  0
  5  7  2  0
  7  8  1  0
  9  8  1  1
  9 10  1  0
 10 11  1  1
  8 12  2  0
 12  3  1  0
 11  9  1  0
M  END
$$$$
