_rank15
     RDKit          3D

 12 13  0  0  0  0  0  0  0  0999 V2000
   26.8050    0.1467   -7.5142 N   0  0  0  0  0  0  0  0  0  0  0  0
   26.1501   -0.0570   -8.4663 C   0  0  0  0  0  0  0  0  0  0  0  0
   25.3528   -0.2824   -9.6380 C   0  0  0  0  0  0  0  0  0  0  0  0
   25.9440   -0.2833  -10.8971 C   0  0  0  0  0  0  0  0  0  0  0  0
   25.1550   -0.5025  -12.0072 C   0  0  0  0  0  0  0  0  0  0  0  0
   25.7250   -0.5044  -13.2355 F   0  0  0  0  0  0  0  0  0  0  0  0
   23.8024   -0.7146  -11.8381 C   0  0  0  0  0  0  0  0  0  0  0  0
   23.1953   -0.7182  -10.6009 C   0  0  0  0  0  0  0  0  0  0  0  0
   21.7267   -0.9504  -10.4414 C   0  0  1  0  0  0  0  0  0  0  0  0
   20.8991   -0.8012  -11.6149 C   0  0  0  0  0  0  0  0  0  0  0  0
   21.2329   -2.1148  -11.1755 O   0  0  0  0  0  0  0  0  0  0  0  0
   23.9967   -0.4975   -9.4986 C   0  0  0  0  0  0  0  0  0  0  0  0
  1  2  3  0
  2  3  1  0
  3  4  2  0
  4  5  1  0
  5  6  1  0
  5  7  2  0
  7  8  1  0
  9  8  1  6
  9 10  1  0
 10 11  1  1
  8 12  2  0
 12  3  1  0
 11  9  1  0
M  END
$$$$
