_rank6
     RDKit          3D

 12 13  0  0  0  0  0  0  0  0999 V2000
   21.2191   -1.7967  -10.2038 N   0  0  0  0  0  0  0  0  0  0  0  0
   22.3024   -1.3544  -10.1163 C   0  0  0  0  0  0  0  0  0  0  0  0
   23.6322   -0.8216  -10.0325 C   0  0  0  0  0  0  0  0  0  0  0  0
   24.3170   -0.8368   -8.8219 C   0  0  0  0  0  0  0  0  0  0  0  0
   25.5942   -0.3184   -8.7684 C   0  0  0  0  0  0  0  0  0  0  0  0
   26.2657   -0.3306   -7.5925 F   0  0  0  0  0  0  0  0  0  0  0  0
   26.1567    0.2003   -9.9162 C   0  0  0  0  0  0  0  0  0  0  0  0
   25.4973    0.2259  -11.1261 C   0  0  0  0  0  0  0  0  0  0  0  0
   26.1269    0.7935  -12.3579 C   0  0  1  0  0  0  0  0  0  0  0  0
   27.3344    0.1638  -12.8374 C   0  0  0  0  0  0  0  0  0  0  0  0
   26.1057   -0.1175  -13.5017 O   0  0  0  0  0  0  0  0  0  0  0  0
   24.2198   -0.2961  -11.1653 C   0  0  0  0  0  0  0  0  0  0  0  0
  1  2  3  0
  2  3  1  0
  3  4  2  0
  4  5  1  0
  5  6  1  0
  5  7  2  0
  7  8  1  0
  9  8  1  1
  9 10  1  0
 10 11  1  1
  8 12  2  0
 12  3  1  0
 11  9  1  0
M  END
$$$$
