_rank4
     RDKit          3D

 12 13  0  0  0  0  0  0  0  0999 V2000
   27.6119   -0.1290   -7.4037 N   0  0  0  0  0  0  0  0  0  0  0  0
   27.0059   -0.1151   -8.4084 C   0  0  0  0  0  0  0  0  0  0  0  0
   26.2435   -0.0976   -9.6241 C   0  0  0  0  0  0  0  0  0  0  0  0
   26.8799    0.0912  -10.8464 C   0  0  0  0  0  0  0  0  0  0  0  0
   26.1238    0.1038  -12.0002 C   0  0  0  0  0  0  0  0  0  0  0  0
   26.7380    0.2872  -13.1930 F   0  0  0  0  0  0  0  0  0  0  0  0
   24.7584   -0.0709  -11.9098 C   0  0  0  0  0  0  0  0  0  0  0  0
   24.1067   -0.2595  -10.7103 C   0  0  0  0  0  0  0  0  0  0  0  0
   22.6250   -0.4469  -10.6362 C   0  0  1  0  0  0  0  0  0  0  0  0
   22.1118   -1.7779  -10.8588 C   0  0  0  0  0  0  0  0  0  0  0  0
   22.1945   -1.2910   -9.5223 O   0  0  0  0  0  0  0  0  0  0  0  0
   24.8755   -0.2699   -9.5636 C   0  0  0  0  0  0  0  0  0  0  0  0
  1  2  3  0
  2  3  1  0
  3  4  2  0
  4  5  1  0
  5  6  1  0
  5  7  2  0
  7  8  1  0
  9  8  1  1
  9 10  1  0
 10 11  1  1
  8 12  2  0
 12  3  1  0
 11  9  1  0
M  END
$$$$
