_rank10
     RDKit          3D

 12 13  0  0  0  0  0  0  0  0999 V2000
   27.0128   -0.3589   -7.3682 N   0  0  0  0  0  0  0  0  0  0  0  0
   26.4651   -0.3411   -8.4058 C   0  0  0  0  0  0  0  0  0  0  0  0
   25.8049   -0.3417   -9.6799 C   0  0  0  0  0  0  0  0  0  0  0  0
   26.5368   -0.1515  -10.8473 C   0  0  0  0  0  0  0  0  0  0  0  0
   25.8779   -0.1566  -12.0592 C   0  0  0  0  0  0  0  0  0  0  0  0
   26.5853    0.0281  -13.1990 F   0  0  0  0  0  0  0  0  0  0  0  0
   24.5122   -0.3500  -12.0798 C   0  0  0  0  0  0  0  0  0  0  0  0
   23.7668   -0.5404  -10.9364 C   0  0  0  0  0  0  0  0  0  0  0  0
   22.2867   -0.7482  -10.9827 C   0  0  1  0  0  0  0  0  0  0  0  0
   21.7981   -2.0925  -10.7862 C   0  0  0  0  0  0  0  0  0  0  0  0
   21.7122   -1.1683   -9.7052 O   0  0  0  0  0  0  0  0  0  0  0  0
   24.4390   -0.5330   -9.7305 C   0  0  0  0  0  0  0  0  0  0  0  0
  1  2  3  0
  2  3  1  0
  3  4  2  0
  4  5  1  0
  5  6  1  0
  5  7  2  0
  7  8  1  0
  9  8  1  1
  9 10  1  0
 10 11  1  1
  8 12  2  0
 12  3  1  0
 11  9  1  0
M  END
$$$$
