_rank3
     RDKit          3D

 12 13  0  0  0  0  0  0  0  0999 V2000
   21.5960   -1.3955   -9.5501 N   0  0  0  0  0  0  0  0  0  0  0  0
   22.6351   -1.0677   -9.9857 C   0  0  0  0  0  0  0  0  0  0  0  0
   23.9162   -0.6701  -10.4958 C   0  0  0  0  0  0  0  0  0  0  0  0
   24.0238   -0.1309  -11.7734 C   0  0  0  0  0  0  0  0  0  0  0  0
   25.2670    0.2432  -12.2399 C   0  0  0  0  0  0  0  0  0  0  0  0
   25.3778    0.7687  -13.4829 F   0  0  0  0  0  0  0  0  0  0  0  0
   26.3682    0.0723  -11.4269 C   0  0  0  0  0  0  0  0  0  0  0  0
   26.2854   -0.4595  -10.1582 C   0  0  0  0  0  0  0  0  0  0  0  0
   27.4931   -0.6356   -9.2942 C   0  0  1  0  0  0  0  0  0  0  0  0
   27.7315    0.3587   -8.2749 C   0  0  0  0  0  0  0  0  0  0  0  0
   27.1781   -0.8967   -7.8902 O   0  0  0  0  0  0  0  0  0  0  0  0
   25.0353   -0.8296   -9.7041 C   0  0  0  0  0  0  0  0  0  0  0  0
  1  2  3  0
  2  3  1  0
  3  4  2  0
  4  5  1  0
  5  6  1  0
  5  7  2  0
  7  8  1  0
  9  8  1  6
  9 10  1  0
 10 11  1  1
  8 12  2  0
 12  3  1  0
 11  9  1  0
M  END
$$$$
