_rank12
     RDKit          3D

 12 13  0  0  0  0  0  0  0  0999 V2000
   26.9840   -0.3597   -7.6487 N   0  0  0  0  0  0  0  0  0  0  0  0
   26.3807   -0.3384   -8.6550 C   0  0  0  0  0  0  0  0  0  0  0  0
   25.6592   -0.3288   -9.8954 C   0  0  0  0  0  0  0  0  0  0  0  0
   26.2625    0.1537  -11.0520 C   0  0  0  0  0  0  0  0  0  0  0  0
   25.5469    0.1518  -12.2314 C   0  0  0  0  0  0  0  0  0  0  0  0
   26.1292    0.6203  -13.3606 F   0  0  0  0  0  0  0  0  0  0  0  0
   24.2536   -0.3281  -12.2310 C   0  0  0  0  0  0  0  0  0  0  0  0
   23.6358   -0.8108  -11.0976 C   0  0  0  0  0  0  0  0  0  0  0  0
   22.2323   -1.3264  -11.1207 C   0  0  1  0  0  0  0  0  0  0  0  0
   21.3530   -0.9073  -10.0550 C   0  0  0  0  0  0  0  0  0  0  0  0
   21.2272   -0.2851  -11.3307 O   0  0  0  0  0  0  0  0  0  0  0  0
   24.3634   -0.8031   -9.9244 C   0  0  0  0  0  0  0  0  0  0  0  0
  1  2  3  0
  2  3  1  0
  3  4  2  0
  4  5  1  0
  5  6  1  0
  5  7  2  0
  7  8  1  0
  9  8  1  1
  9 10  1  0
 10 11  1  1
  8 12  2  0
 12  3  1  0
 11  9  1  0
M  END
$$$$
