_rank8
     RDKit          3D

 19 21  0  0  0  0  0  0  0  0999 V2000
   19.1572   -2.9565   -8.5953 N   0  0  0  0  0  0  0  0  0  0  0  0
   19.9261   -2.3284   -9.3044 C   0  0  0  0  0  0  0  0  0  0  0  0
   20.8106   -1.6123  -10.0883 C   0  0  0  0  0  0  0  0  0  0  0  0
   20.3368   -0.9006  -11.2049 C   0  0  0  0  0  0  0  0  0  0  0  0
   21.1747   -0.1487  -12.0054 C   0  0  0  0  0  0  0  0  0  0  0  0
   20.6475    0.4992  -13.0489 F   0  0  0  0  0  0  0  0  0  0  0  0
   22.5385   -0.0938  -11.6953 C   0  0  0  0  0  0  0  0  0  0  0  0
   23.0382   -0.7624  -10.6354 C   0  0  0  0  0  0  0  0  0  0  0  0
   24.3532   -0.7507  -10.2836 O   0  0  0  0  0  0  0  0  0  0  0  0
   25.2876    0.1974  -10.5949 C   0  0  1  0  0  0  0  0  0  0  0  0
   26.2465    0.6103   -9.5998 C   0  0  1  0  0  0  0  0  0  0  0  0
   26.4326   -0.1238   -8.3171 C   0  0  0  0  0  0  0  0  0  0  0  0
   27.7692    0.5304   -7.8961 C   0  0  0  0  0  0  0  0  0  0  0  0
   28.4577    0.9279   -9.2229 C   0  0  0  0  0  0  0  0  0  0  0  0
   27.6149    0.2194  -10.1946 C   0  0  2  0  0  0  0  0  0  0  0  0
   27.4197    0.7167  -11.5640 C   0  0  0  0  0  0  0  0  0  0  0  0
   26.1250   -0.1197  -11.8488 C   0  0  1  0  0  0  0  0  0  0  0  0
   26.4708   -1.4605  -11.7600 O   0  0  0  0  0  0  0  0  0  0  0  0
   22.1497   -1.5108   -9.8520 C   0  0  0  0  0  0  0  0  0  0  0  0
  1  2  3  0
  2  3  1  0
  3  4  2  0
  4  5  1  0
  5  6  1  0
  5  7  2  0
  7  8  1  0
  8  9  1  0
 10  9  1  1
 10 11  1  0
 11 12  1  1
 13 12  1  1
 14 13  1  1
 15 14  1  1
 15 16  1  0
 16 17  1  1
 17 18  1  1
  8 19  2  0
 19  3  1  0
 17 10  1  0
 15 11  1  0
M  END
$$$$
