_rank18
     RDKit          3D

 19 21  0  0  0  0  0  0  0  0999 V2000
   29.3626   -0.4534   -8.2055 N   0  0  0  0  0  0  0  0  0  0  0  0
   28.2883   -0.8743   -8.6021 C   0  0  0  0  0  0  0  0  0  0  0  0
   27.0683   -1.3620   -9.0303 C   0  0  0  0  0  0  0  0  0  0  0  0
   26.8712   -2.7498   -9.1436 C   0  0  0  0  0  0  0  0  0  0  0  0
   25.6635   -3.2893   -9.5419 C   0  0  0  0  0  0  0  0  0  0  0  0
   25.5556   -4.6191   -9.6250 F   0  0  0  0  0  0  0  0  0  0  0  0
   24.6027   -2.4271   -9.8426 C   0  0  0  0  0  0  0  0  0  0  0  0
   24.7466   -1.0889   -9.7506 C   0  0  0  0  0  0  0  0  0  0  0  0
   23.7552   -0.1992  -10.0310 O   0  0  0  0  0  0  0  0  0  0  0  0
   22.6135   -0.4267  -10.7478 C   0  0  1  0  0  0  0  0  0  0  0  0
   21.3296   -0.3281  -10.0981 C   0  0  1  0  0  0  0  0  0  0  0  0
   21.1660    0.2545   -8.7370 C   0  0  0  0  0  0  0  0  0  0  0  0
   19.6289    0.4219   -8.7668 C   0  0  0  0  0  0  0  0  0  0  0  0
   19.2738    0.6097  -10.2604 C   0  0  0  0  0  0  0  0  0  0  0  0
   20.6080    0.8171  -10.8377 C   0  0  2  0  0  0  0  0  0  0  0  0
   20.9261    0.4329  -12.2204 C   0  0  0  0  0  0  0  0  0  0  0  0
   22.4814    0.4256  -12.0246 C   0  0  1  0  0  0  0  0  0  0  0  0
   22.8605    1.7140  -11.6764 O   0  0  0  0  0  0  0  0  0  0  0  0
   25.9895   -0.5881   -9.3414 C   0  0  0  0  0  0  0  0  0  0  0  0
  1  2  3  0
  2  3  1  0
  3  4  2  0
  4  5  1  0
  5  6  1  0
  5  7  2  0
  7  8  1  0
  8  9  1  0
 10  9  1  1
 10 11  1  0
 11 12  1  1
 13 12  1  1
 14 13  1  1
 15 14  1  6
 15 16  1  0
 16 17  1  1
 17 18  1  1
  8 19  2  0
 19  3  1  0
 17 10  1  0
 15 11  1  0
M  END
$$$$
