_rank6
     RDKit          3D

 19 21  0  0  0  0  0  0  0  0999 V2000
   19.4687    2.0085   -8.6158 N   0  0  0  0  0  0  0  0  0  0  0  0
   20.2753    1.3180   -9.2169 C   0  0  0  0  0  0  0  0  0  0  0  0
   21.1725    0.5181   -9.8985 C   0  0  0  0  0  0  0  0  0  0  0  0
   20.9576   -0.8699   -9.9698 C   0  0  0  0  0  0  0  0  0  0  0  0
   21.8097   -1.7099  -10.6600 C   0  0  0  0  0  0  0  0  0  0  0  0
   21.5366   -3.0182  -10.6810 F   0  0  0  0  0  0  0  0  0  0  0  0
   22.9226   -1.1621  -11.3084 C   0  0  0  0  0  0  0  0  0  0  0  0
   23.1702    0.1633  -11.2649 C   0  0  0  0  0  0  0  0  0  0  0  0
   24.2351    0.7555  -11.8721 O   0  0  0  0  0  0  0  0  0  0  0  0
   25.5612    0.5156  -11.6421 C   0  0  1  0  0  0  0  0  0  0  0  0
   26.0992    0.6868  -10.3150 C   0  0  1  0  0  0  0  0  0  0  0  0
   25.2309    0.8741   -9.1192 C   0  0  0  0  0  0  0  0  0  0  0  0
   26.3089    0.6236   -8.0391 C   0  0  0  0  0  0  0  0  0  0  0  0
   27.3342   -0.3228   -8.7064 C   0  0  0  0  0  0  0  0  0  0  0  0
   26.6007   -0.7163   -9.9161 C   0  0  2  0  0  0  0  0  0  0  0  0
   27.2915   -1.0754  -11.1629 C   0  0  0  0  0  0  0  0  0  0  0  0
   26.0453   -0.8761  -12.0927 C   0  0  1  0  0  0  0  0  0  0  0  0
   25.0751   -1.7796  -11.6834 O   0  0  0  0  0  0  0  0  0  0  0  0
   22.2774    0.9758  -10.5537 C   0  0  0  0  0  0  0  0  0  0  0  0
  1  2  3  0
  2  3  1  0
  3  4  2  0
  4  5  1  0
  5  6  1  0
  5  7  2  0
  7  8  1  0
  8  9  1  0
 10  9  1  1
 10 11  1  0
 11 12  1  1
 13 12  1  1
 14 13  1  1
 15 14  1  1
 15 16  1  0
 16 17  1  1
 17 18  1  1
  8 19  2  0
 19  3  1  0
 17 10  1  0
 15 11  1  0
M  END
$$$$
