_rank17
     RDKit          3D

 19 21  0  0  0  0  0  0  0  0999 V2000
   29.3199    2.4163  -10.4341 N   0  0  0  0  0  0  0  0  0  0  0  0
   28.4215    1.6536  -10.1179 C   0  0  0  0  0  0  0  0  0  0  0  0
   27.4151    0.7859   -9.7388 C   0  0  0  0  0  0  0  0  0  0  0  0
   27.6395   -0.1328   -8.6980 C   0  0  0  0  0  0  0  0  0  0  0  0
   26.6591   -1.0037   -8.2637 C   0  0  0  0  0  0  0  0  0  0  0  0
   26.9506   -1.8470   -7.2685 F   0  0  0  0  0  0  0  0  0  0  0  0
   25.4027   -0.9707   -8.8796 C   0  0  0  0  0  0  0  0  0  0  0  0
   25.1427   -0.1080   -9.8837 C   0  0  0  0  0  0  0  0  0  0  0  0
   23.9437   -0.0290  -10.5235 O   0  0  0  0  0  0  0  0  0  0  0  0
   23.0972   -1.0576  -10.8309 C   0  0  1  0  0  0  0  0  0  0  0  0
   21.7607   -1.0701  -10.2889 C   0  0  1  0  0  0  0  0  0  0  0  0
   21.1649    0.1118   -9.6055 C   0  0  0  0  0  0  0  0  0  0  0  0
   19.6947   -0.3678   -9.6060 C   0  0  0  0  0  0  0  0  0  0  0  0
   19.5745   -1.2939  -10.8391 C   0  0  0  0  0  0  0  0  0  0  0  0
   20.8405   -1.0063  -11.5252 C   0  0  2  0  0  0  0  0  0  0  0  0
   21.5155   -2.0065  -12.3647 C   0  0  0  0  0  0  0  0  0  0  0  0
   22.9180   -1.3068  -12.3408 C   0  0  1  0  0  0  0  0  0  0  0  0
   22.7678   -0.0590  -12.9286 O   0  0  0  0  0  0  0  0  0  0  0  0
   26.1679    0.7567  -10.2893 C   0  0  0  0  0  0  0  0  0  0  0  0
  1  2  3  0
  2  3  1  0
  3  4  2  0
  4  5  1  0
  5  6  1  0
  5  7  2  0
  7  8  1  0
  8  9  1  0
 10  9  1  6
 10 11  1  0
 11 12  1  1
 13 12  1  1
 14 13  1  1
 15 14  1  1
 15 16  1  0
 16 17  1  1
 17 18  1  6
  8 19  2  0
 19  3  1  0
 17 10  1  0
 15 11  1  0
M  END
$$$$
