_rank12
     RDKit          3D

 19 21  0  0  0  0  0  0  0  0999 V2000
   28.6473   -0.1453   -6.8618 N   0  0  0  0  0  0  0  0  0  0  0  0
   27.9387   -0.2293   -7.8515 C   0  0  0  0  0  0  0  0  0  0  0  0
   27.1519   -0.3398   -8.9821 C   0  0  0  0  0  0  0  0  0  0  0  0
   27.7570   -0.4740  -10.2445 C   0  0  0  0  0  0  0  0  0  0  0  0
   27.0164   -0.6138  -11.4022 C   0  0  0  0  0  0  0  0  0  0  0  0
   27.6662   -0.7362  -12.5638 F   0  0  0  0  0  0  0  0  0  0  0  0
   25.6194   -0.6216  -11.3158 C   0  0  0  0  0  0  0  0  0  0  0  0
   24.9954   -0.4932  -10.1266 C   0  0  0  0  0  0  0  0  0  0  0  0
   23.6423   -0.4911   -9.9773 O   0  0  0  0  0  0  0  0  0  0  0  0
   22.6981   -0.4237  -10.9638 C   0  0  1  0  0  0  0  0  0  0  0  0
   21.7083   -1.4663  -11.0787 C   0  0  1  0  0  0  0  0  0  0  0  0
   21.5052   -2.4949  -10.0206 C   0  0  0  0  0  0  0  0  0  0  0  0
   20.1471   -3.0405  -10.5200 C   0  0  0  0  0  0  0  0  0  0  0  0
   19.4833   -1.8533  -11.2565 C   0  0  0  0  0  0  0  0  0  0  0  0
   20.3619   -0.7494  -10.8495 C   0  0  2  0  0  0  0  0  0  0  0  0
   20.5806    0.4267  -11.7036 C   0  0  0  0  0  0  0  0  0  0  0  0
   21.8970    0.8922  -10.9912 C   0  0  1  0  0  0  0  0  0  0  0  0
   21.5740    1.1816   -9.6732 O   0  0  0  0  0  0  0  0  0  0  0  0
   25.7883   -0.3552   -8.9797 C   0  0  0  0  0  0  0  0  0  0  0  0
  1  2  3  0
  2  3  1  0
  3  4  2  0
  4  5  1  0
  5  6  1  0
  5  7  2  0
  7  8  1  0
  8  9  1  0
 10  9  1  1
 10 11  1  0
 11 12  1  1
 13 12  1  1
 14 13  1  1
 15 14  1  6
 15 16  1  0
 16 17  1  1
 17 18  1  1
  8 19  2  0
 19  3  1  0
 17 10  1  0
 15 11  1  0
M  END
$$$$
