_rank3
     RDKit          3D

 19 21  0  0  0  0  0  0  0  0999 V2000
   19.2544   -3.9428  -10.0484 N   0  0  0  0  0  0  0  0  0  0  0  0
   19.8109   -2.8626  -10.1582 C   0  0  0  0  0  0  0  0  0  0  0  0
   20.4206   -1.6296  -10.2902 C   0  0  0  0  0  0  0  0  0  0  0  0
   19.6986   -0.4582   -9.9997 C   0  0  0  0  0  0  0  0  0  0  0  0
   20.2687    0.7968  -10.0906 C   0  0  0  0  0  0  0  0  0  0  0  0
   19.5160    1.8618   -9.7975 F   0  0  0  0  0  0  0  0  0  0  0  0
   21.6073    0.9057  -10.4847 C   0  0  0  0  0  0  0  0  0  0  0  0
   22.3380   -0.1904  -10.7758 C   0  0  0  0  0  0  0  0  0  0  0  0
   23.6415   -0.1503  -11.1663 O   0  0  0  0  0  0  0  0  0  0  0  0
   24.6553    0.5732  -10.6025 C   0  0  1  0  0  0  0  0  0  0  0  0
   25.6768   -0.1013   -9.8399 C   0  0  1  0  0  0  0  0  0  0  0  0
   25.8254   -1.5834   -9.8393 C   0  0  0  0  0  0  0  0  0  0  0  0
   27.2305   -1.6506   -9.1969 C   0  0  0  0  0  0  0  0  0  0  0  0
   27.9180   -0.3232   -9.5942 C   0  0  0  0  0  0  0  0  0  0  0  0
   26.9837    0.1788  -10.6099 C   0  0  2  0  0  0  0  0  0  0  0  0
   26.8006    1.6162  -10.8563 C   0  0  0  0  0  0  0  0  0  0  0  0
   25.4230    1.4727  -11.5903 C   0  0  1  0  0  0  0  0  0  0  0  0
   25.6384    0.7095  -12.7288 O   0  0  0  0  0  0  0  0  0  0  0  0
   21.7172   -1.4418  -10.6683 C   0  0  0  0  0  0  0  0  0  0  0  0
  1  2  3  0
  2  3  1  0
  3  4  2  0
  4  5  1  0
  5  6  1  0
  5  7  2  0
  7  8  1  0
  8  9  1  0
 10  9  1  6
 10 11  1  0
 11 12  1  6
 13 12  1  1
 14 13  1  1
 15 14  1  1
 15 16  1  0
 16 17  1  1
 17 18  1  6
  8 19  2  0
 19  3  1  0
 17 10  1  0
 15 11  1  0
M  END
$$$$
