_rank2
     RDKit          3D

 19 21  0  0  0  0  0  0  0  0999 V2000
   18.3663    1.9329   -9.5485 N   0  0  0  0  0  0  0  0  0  0  0  0
   19.3227    1.2063   -9.7630 C   0  0  0  0  0  0  0  0  0  0  0  0
   20.4203    0.3999   -9.9962 C   0  0  0  0  0  0  0  0  0  0  0  0
   20.4131   -0.9354   -9.5548 C   0  0  0  0  0  0  0  0  0  0  0  0
   21.4736   -1.7901   -9.7850 C   0  0  0  0  0  0  0  0  0  0  0  0
   21.3904   -3.0454   -9.3334 F   0  0  0  0  0  0  0  0  0  0  0  0
   22.5908   -1.3117  -10.4793 C   0  0  0  0  0  0  0  0  0  0  0  0
   22.6431   -0.0375  -10.9193 C   0  0  0  0  0  0  0  0  0  0  0  0
   23.7005    0.4873  -11.5973 O   0  0  0  0  0  0  0  0  0  0  0  0
   24.8545    0.9968  -11.0704 C   0  0  1  0  0  0  0  0  0  0  0  0
   25.5556    0.2658  -10.0436 C   0  0  1  0  0  0  0  0  0  0  0  0
   25.2214   -1.1438   -9.6972 C   0  0  0  0  0  0  0  0  0  0  0  0
   26.4872   -1.4586   -8.8664 C   0  0  0  0  0  0  0  0  0  0  0  0
   27.5872   -0.5384   -9.4455 C   0  0  0  0  0  0  0  0  0  0  0  0
   26.9295   -0.0560  -10.6665 C   0  0  2  0  0  0  0  0  0  0  0  0
   27.2324    1.2608  -11.2454 C   0  0  0  0  0  0  0  0  0  0  0  0
   25.9310    1.3503  -12.1146 C   0  0  1  0  0  0  0  0  0  0  0  0
   25.9627    0.2964  -13.0165 O   0  0  0  0  0  0  0  0  0  0  0  0
   21.5432    0.7919  -10.6632 C   0  0  0  0  0  0  0  0  0  0  0  0
  1  2  3  0
  2  3  1  0
  3  4  2  0
  4  5  1  0
  5  6  1  0
  5  7  2  0
  7  8  1  0
  8  9  1  0
 10  9  1  6
 10 11  1  0
 11 12  1  6
 13 12  1  1
 14 13  1  1
 15 14  1  1
 15 16  1  0
 16 17  1  1
 17 18  1  6
  8 19  2  0
 19  3  1  0
 17 10  1  0
 15 11  1  0
M  END
$$$$
