_rank18
     RDKit          3D

 18 19  0  0  0  0  0  0  0  0999 V2000
   23.5779   -3.9163   -9.5215 O   0  0  0  0  0  0  0  0  0  0  0  0
   23.4577   -2.7718   -9.0467 C   0  0  0  0  0  0  0  0  0  0  0  0
   24.1775   -1.6611   -9.6178 C   0  0  0  0  0  0  0  0  0  0  0  0
   25.3281   -1.2357   -8.9455 C   0  0  0  0  0  0  0  0  0  0  0  0
   26.0431   -0.1426   -9.3699 C   0  0  0  0  0  0  0  0  0  0  0  0
   27.1587    0.2797   -8.7282 F   0  0  0  0  0  0  0  0  0  0  0  0
   25.5744    0.5165  -10.4896 C   0  0  0  0  0  0  0  0  0  0  0  0
   24.4418    0.1046  -11.1604 C   0  0  0  0  0  0  0  0  0  0  0  0
   23.7131   -1.0105  -10.7292 C   0  0  0  0  0  0  0  0  0  0  0  0
   22.5949   -1.3536  -11.4594 O   0  0  0  0  0  0  0  0  0  0  0  0
   21.3122   -0.9560  -11.1244 C   0  0  0  0  0  0  0  0  0  0  0  0
   21.0826    0.2001  -10.3878 C   0  0  0  0  0  0  0  0  0  0  0  0
   19.8211    0.6252  -10.0414 C   0  0  0  0  0  0  0  0  0  0  0  0
   19.6828    1.7643   -9.3213 F   0  0  0  0  0  0  0  0  0  0  0  0
   18.7143   -0.1025  -10.4249 C   0  0  0  0  0  0  0  0  0  0  0  0
   18.8966   -1.2532  -11.1552 C   0  0  0  0  0  0  0  0  0  0  0  0
   17.8009   -1.9801  -11.5388 F   0  0  0  0  0  0  0  0  0  0  0  0
   20.1706   -1.6598  -11.4907 C   0  0  0  0  0  0  0  0  0  0  0  0
  1  2  2  0
  2  3  1  0
  3  4  2  0
  4  5  1  0
  5  6  1  0
  5  7  2  0
  7  8  1  0
  8  9  2  0
  9 10  1  0
 10 11  1  0
 11 12  2  0
 12 13  1  0
 13 14  1  0
 13 15  2  0
 15 16  1  0
 16 17  1  0
 16 18  2  0
  9  3  1  0
 18 11  1  0
M  END
$$$$
