_rank7
     RDKit          3D

 18 19  0  0  0  0  0  0  0  0999 V2000
   27.0710   -0.3287  -12.9360 O   0  0  0  0  0  0  0  0  0  0  0  0
   26.0458   -0.7102  -12.3417 C   0  0  0  0  0  0  0  0  0  0  0  0
   25.9565   -0.6275  -10.9054 C   0  0  0  0  0  0  0  0  0  0  0  0
   27.0596   -1.0782  -10.1727 C   0  0  0  0  0  0  0  0  0  0  0  0
   27.0448   -1.1065   -8.7996 C   0  0  0  0  0  0  0  0  0  0  0  0
   28.1059   -1.5404   -8.0783 F   0  0  0  0  0  0  0  0  0  0  0  0
   25.8919   -0.6700   -8.1764 C   0  0  0  0  0  0  0  0  0  0  0  0
   24.7994   -0.2227   -8.8894 C   0  0  0  0  0  0  0  0  0  0  0  0
   24.8141   -0.1922  -10.2891 C   0  0  0  0  0  0  0  0  0  0  0  0
   23.6801    0.2715  -10.9215 O   0  0  0  0  0  0  0  0  0  0  0  0
   22.4219   -0.2722  -10.7294 C   0  0  0  0  0  0  0  0  0  0  0  0
   21.3415    0.5188  -10.3565 C   0  0  0  0  0  0  0  0  0  0  0  0
   20.0781    0.0111  -10.1610 C   0  0  0  0  0  0  0  0  0  0  0  0
   19.0783    0.8501   -9.7980 F   0  0  0  0  0  0  0  0  0  0  0  0
   19.8374   -1.3357  -10.3339 C   0  0  0  0  0  0  0  0  0  0  0  0
   20.8787   -2.1544  -10.7028 C   0  0  0  0  0  0  0  0  0  0  0  0
   20.6454   -3.4929  -10.8759 F   0  0  0  0  0  0  0  0  0  0  0  0
   22.1367   -1.6230  -10.8930 C   0  0  0  0  0  0  0  0  0  0  0  0
  1  2  2  0
  2  3  1  0
  3  4  2  0
  4  5  1  0
  5  6  1  0
  5  7  2  0
  7  8  1  0
  8  9  2  0
  9 10  1  0
 10 11  1  0
 11 12  2  0
 12 13  1  0
 13 14  1  0
 13 15  2  0
 15 16  1  0
 16 17  1  0
 16 18  2  0
  9  3  1  0
 18 11  1  0
M  END
$$$$
