_rank14
     RDKit          3D

 18 19  0  0  0  0  0  0  0  0999 V2000
   23.5666    1.2655  -12.8330 O   0  0  0  0  0  0  0  0  0  0  0  0
   23.5918    0.0669  -12.4974 C   0  0  0  0  0  0  0  0  0  0  0  0
   22.7085   -0.4263  -11.4706 C   0  0  0  0  0  0  0  0  0  0  0  0
   21.4123    0.0990  -11.4406 C   0  0  0  0  0  0  0  0  0  0  0  0
   20.5187   -0.2539  -10.4591 C   0  0  0  0  0  0  0  0  0  0  0  0
   19.2610    0.2471  -10.4185 F   0  0  0  0  0  0  0  0  0  0  0  0
   20.9582   -1.1502   -9.5044 C   0  0  0  0  0  0  0  0  0  0  0  0
   22.2336   -1.6748   -9.5256 C   0  0  0  0  0  0  0  0  0  0  0  0
   23.1448   -1.3166  -10.5265 C   0  0  0  0  0  0  0  0  0  0  0  0
   24.3976   -1.8898  -10.4729 O   0  0  0  0  0  0  0  0  0  0  0  0
   25.5462   -1.1871  -10.1527 C   0  0  0  0  0  0  0  0  0  0  0  0
   25.8930   -0.9317   -8.8311 C   0  0  0  0  0  0  0  0  0  0  0  0
   27.0285   -0.2400   -8.4786 C   0  0  0  0  0  0  0  0  0  0  0  0
   27.2948   -0.0331   -7.1665 F   0  0  0  0  0  0  0  0  0  0  0  0
   27.8818    0.2347   -9.4523 C   0  0  0  0  0  0  0  0  0  0  0  0
   27.5762    0.0040  -10.7730 C   0  0  0  0  0  0  0  0  0  0  0  0
   28.4202    0.4733  -11.7444 F   0  0  0  0  0  0  0  0  0  0  0  0
   26.4324   -0.6918  -11.1025 C   0  0  0  0  0  0  0  0  0  0  0  0
  1  2  2  0
  2  3  1  0
  3  4  2  0
  4  5  1  0
  5  6  1  0
  5  7  2  0
  7  8  1  0
  8  9  2  0
  9 10  1  0
 10 11  1  0
 11 12  2  0
 12 13  1  0
 13 14  1  0
 13 15  2  0
 15 16  1  0
 16 17  1  0
 16 18  2  0
  9  3  1  0
 18 11  1  0
M  END
$$$$
