_rank10
     RDKit          3D

 18 19  0  0  0  0  0  0  0  0999 V2000
   26.2404   -2.1596  -12.6600 O   0  0  0  0  0  0  0  0  0  0  0  0
   25.6670   -1.1052  -12.3295 C   0  0  0  0  0  0  0  0  0  0  0  0
   25.7169   -0.6389  -10.9665 C   0  0  0  0  0  0  0  0  0  0  0  0
   26.8180   -1.0336  -10.1992 C   0  0  0  0  0  0  0  0  0  0  0  0
   26.9223   -0.7002   -8.8709 C   0  0  0  0  0  0  0  0  0  0  0  0
   27.9829   -1.0760   -8.1169 F   0  0  0  0  0  0  0  0  0  0  0  0
   25.8913    0.0418   -8.3283 C   0  0  0  0  0  0  0  0  0  0  0  0
   24.8020    0.4370   -9.0763 C   0  0  0  0  0  0  0  0  0  0  0  0
   24.6955    0.0988  -10.4308 C   0  0  0  0  0  0  0  0  0  0  0  0
   23.5744    0.5364  -11.1035 O   0  0  0  0  0  0  0  0  0  0  0  0
   22.2920    0.1038  -10.8136 C   0  0  0  0  0  0  0  0  0  0  0  0
   21.9937   -1.2489  -10.6989 C   0  0  0  0  0  0  0  0  0  0  0  0
   20.7315   -1.7120  -10.4083 C   0  0  0  0  0  0  0  0  0  0  0  0
   20.5237   -3.0473  -10.3138 F   0  0  0  0  0  0  0  0  0  0  0  0
   19.6940   -0.8240  -10.2164 C   0  0  0  0  0  0  0  0  0  0  0  0
   19.9457    0.5238  -10.3208 C   0  0  0  0  0  0  0  0  0  0  0  0
   18.9190    1.4104  -10.1311 F   0  0  0  0  0  0  0  0  0  0  0  0
   21.2190    0.9647  -10.6129 C   0  0  0  0  0  0  0  0  0  0  0  0
  1  2  2  0
  2  3  1  0
  3  4  2  0
  4  5  1  0
  5  6  1  0
  5  7  2  0
  7  8  1  0
  8  9  2  0
  9 10  1  0
 10 11  1  0
 11 12  2  0
 12 13  1  0
 13 14  1  0
 13 15  2  0
 15 16  1  0
 16 17  1  0
 16 18  2  0
  9  3  1  0
 18 11  1  0
M  END
$$$$
