_rank19
     RDKit          3D

 18 19  0  0  0  0  0  0  0  0999 V2000
   26.3911   -1.1190   -7.8130 O   0  0  0  0  0  0  0  0  0  0  0  0
   25.4751   -0.8555   -8.6139 C   0  0  0  0  0  0  0  0  0  0  0  0
   25.7734   -0.4983   -9.9781 C   0  0  0  0  0  0  0  0  0  0  0  0
   27.0869   -0.6991  -10.4154 C   0  0  0  0  0  0  0  0  0  0  0  0
   27.4880   -0.3253  -11.6748 C   0  0  0  0  0  0  0  0  0  0  0  0
   28.7564   -0.5141  -12.1106 F   0  0  0  0  0  0  0  0  0  0  0  0
   26.5358    0.2572  -12.4884 C   0  0  0  0  0  0  0  0  0  0  0  0
   25.2380    0.4586  -12.0674 C   0  0  0  0  0  0  0  0  0  0  0  0
   24.8279    0.0767  -10.7843 C   0  0  0  0  0  0  0  0  0  0  0  0
   23.5123    0.3131  -10.4465 O   0  0  0  0  0  0  0  0  0  0  0  0
   22.5065   -0.6271  -10.5876 C   0  0  0  0  0  0  0  0  0  0  0  0
   22.3515   -1.3491  -11.7652 C   0  0  0  0  0  0  0  0  0  0  0  0
   21.3655   -2.2927  -11.9369 C   0  0  0  0  0  0  0  0  0  0  0  0
   21.2822   -2.9534  -13.1167 F   0  0  0  0  0  0  0  0  0  0  0  0
   20.4754   -2.5592  -10.9179 C   0  0  0  0  0  0  0  0  0  0  0  0
   20.5932   -1.8672   -9.7355 C   0  0  0  0  0  0  0  0  0  0  0  0
   19.7119   -2.1277   -8.7199 F   0  0  0  0  0  0  0  0  0  0  0  0
   21.5895   -0.9258   -9.5863 C   0  0  0  0  0  0  0  0  0  0  0  0
  1  2  2  0
  2  3  1  0
  3  4  2  0
  4  5  1  0
  5  6  1  0
  5  7  2  0
  7  8  1  0
  8  9  2  0
  9 10  1  0
 10 11  1  0
 11 12  2  0
 12 13  1  0
 13 14  1  0
 13 15  2  0
 15 16  1  0
 16 17  1  0
 16 18  2  0
  9  3  1  0
 18 11  1  0
M  END
$$$$
