_rank11
     RDKit          3D

 18 19  0  0  0  0  0  0  0  0999 V2000
   24.4468   -0.8977   -7.0919 O   0  0  0  0  0  0  0  0  0  0  0  0
   25.4384   -1.0536   -7.8282 C   0  0  0  0  0  0  0  0  0  0  0  0
   25.4116   -0.6085   -9.1990 C   0  0  0  0  0  0  0  0  0  0  0  0
   26.5790   -0.0233   -9.7005 C   0  0  0  0  0  0  0  0  0  0  0  0
   26.6317    0.4959  -10.9710 C   0  0  0  0  0  0  0  0  0  0  0  0
   27.7554    1.0651  -11.4687 F   0  0  0  0  0  0  0  0  0  0  0  0
   25.4803    0.4135  -11.7297 C   0  0  0  0  0  0  0  0  0  0  0  0
   24.3246   -0.1625  -11.2452 C   0  0  0  0  0  0  0  0  0  0  0  0
   24.2704   -0.6932   -9.9506 C   0  0  0  0  0  0  0  0  0  0  0  0
   23.0760   -1.2519   -9.5478 O   0  0  0  0  0  0  0  0  0  0  0  0
   21.8434   -0.8534  -10.0352 C   0  0  0  0  0  0  0  0  0  0  0  0
   21.2225   -1.5347  -11.0755 C   0  0  0  0  0  0  0  0  0  0  0  0
   19.9969   -1.1674  -11.5806 C   0  0  0  0  0  0  0  0  0  0  0  0
   19.4595   -1.8848  -12.5964 F   0  0  0  0  0  0  0  0  0  0  0  0
   19.3276   -0.0818  -11.0560 C   0  0  0  0  0  0  0  0  0  0  0  0
   19.9065    0.6206  -10.0254 C   0  0  0  0  0  0  0  0  0  0  0  0
   19.2462    1.6997   -9.5004 F   0  0  0  0  0  0  0  0  0  0  0  0
   21.1358    0.2338   -9.5353 C   0  0  0  0  0  0  0  0  0  0  0  0
  1  2  2  0
  2  3  1  0
  3  4  2  0
  4  5  1  0
  5  6  1  0
  5  7  2  0
  7  8  1  0
  8  9  2  0
  9 10  1  0
 10 11  1  0
 11 12  2  0
 12 13  1  0
 13 14  1  0
 13 15  2  0
 15 16  1  0
 16 17  1  0
 16 18  2  0
  9  3  1  0
 18 11  1  0
M  END
$$$$
