_rank18
     RDKit          3D

 19 20  0  0  0  0  0  0  0  0999 V2000
   21.0264   -0.7584  -14.1666 C   0  0  0  0  0  0  0  0  0  0  0  0
   20.1154   -0.6192  -12.9818 C   0  0  0  0  0  0  0  0  0  0  0  0
   20.8148   -0.9313  -11.6771 C   0  0  2  0  0  0  0  0  0  0  0  0
   19.8635   -1.2519  -10.5746 C   0  0  0  0  0  0  0  0  0  0  0  0
   20.4330   -0.8578   -9.2399 C   0  0  0  0  0  0  0  0  0  0  0  0
   21.9021   -1.1076   -9.1201 C   0  0  1  0  0  0  0  0  0  0  0  0
   22.2434   -2.4526   -9.2347 O   0  0  0  0  0  0  0  0  0  0  0  0
   22.6194   -0.2453  -10.1292 C   0  0  1  0  0  0  0  0  0  0  0  0
   23.7199   -0.8831  -10.7054 O   0  0  0  0  0  0  0  0  0  0  0  0
   25.0441   -0.6137  -10.5337 C   0  0  0  0  0  0  0  0  0  0  0  0
   25.8543   -0.7468  -11.6681 C   0  0  0  0  0  0  0  0  0  0  0  0
   27.2021   -0.5040  -11.6237 C   0  0  0  0  0  0  0  0  0  0  0  0
   27.9233   -0.6519  -12.7538 F   0  0  0  0  0  0  0  0  0  0  0  0
   27.7421   -0.1227  -10.4242 C   0  0  0  0  0  0  0  0  0  0  0  0
   26.9974    0.0229   -9.2852 C   0  0  0  0  0  0  0  0  0  0  0  0
   27.6184    0.4268   -8.0466 C   0  0  0  0  0  0  0  0  0  0  0  0
   28.1070    0.7385   -7.0398 N   0  0  0  0  0  0  0  0  0  0  0  0
   25.6302   -0.2291   -9.3538 C   0  0  0  0  0  0  0  0  0  0  0  0
   21.6812    0.2244  -11.2289 C   0  0  0  0  0  0  0  0  0  0  0  0
  2  1  1  1
  3  2  1  6
  4  3  1  6
  5  4  1  6
  5  6  1  0
  6  7  1  6
  6  8  1  0
  8  9  1  6
  9 10  1  0
 10 11  2  0
 11 12  1  0
 12 13  1  0
 12 14  2  0
 14 15  1  0
 15 16  1  0
 16 17  3  0
 15 18  2  0
 19  8  1  6
 19  3  1  0
 18 10  1  0
M  END
$$$$
