_rank13
     RDKit          3D

 19 20  0  0  0  0  0  0  0  0999 V2000
   19.1091    1.7620  -10.5067 C   0  0  0  0  0  0  0  0  0  0  0  0
   20.2449    1.3800  -11.4106 C   0  0  0  0  0  0  0  0  0  0  0  0
   20.8576    0.0487  -11.0352 C   0  0  2  0  0  0  0  0  0  0  0  0
   19.8540   -1.0525  -10.9767 C   0  0  0  0  0  0  0  0  0  0  0  0
   20.2594   -2.0982   -9.9752 C   0  0  0  0  0  0  0  0  0  0  0  0
   21.7308   -2.3614   -9.9490 C   0  0  1  0  0  0  0  0  0  0  0  0
   22.2235   -2.8565  -11.1533 O   0  0  0  0  0  0  0  0  0  0  0  0
   22.4362   -1.1003   -9.5151 C   0  0  1  0  0  0  0  0  0  0  0  0
   23.6449   -0.8956  -10.1837 O   0  0  0  0  0  0  0  0  0  0  0  0
   24.9084   -0.8969   -9.6746 C   0  0  0  0  0  0  0  0  0  0  0  0
   25.4894   -2.1537   -9.4651 C   0  0  0  0  0  0  0  0  0  0  0  0
   26.7551   -2.2870   -8.9576 C   0  0  0  0  0  0  0  0  0  0  0  0
   27.2534   -3.5278   -8.7806 F   0  0  0  0  0  0  0  0  0  0  0  0
   27.4454   -1.1429   -8.6569 C   0  0  0  0  0  0  0  0  0  0  0  0
   26.9263    0.1100   -8.8416 C   0  0  0  0  0  0  0  0  0  0  0  0
   27.6978    1.2827   -8.5068 C   0  0  0  0  0  0  0  0  0  0  0  0
   28.3301    2.2155   -8.2247 N   0  0  0  0  0  0  0  0  0  0  0  0
   25.6387    0.2213   -9.3583 C   0  0  0  0  0  0  0  0  0  0  0  0
   21.5522    0.1231   -9.6939 C   0  0  0  0  0  0  0  0  0  0  0  0
  2  1  1  1
  3  2  1  1
  4  3  1  6
  5  4  1  6
  5  6  1  0
  6  7  1  6
  6  8  1  0
  8  9  1  6
  9 10  1  0
 10 11  2  0
 11 12  1  0
 12 13  1  0
 12 14  2  0
 14 15  1  0
 15 16  1  0
 16 17  3  0
 15 18  2  0
 19  8  1  6
 19  3  1  0
 18 10  1  0
M  END
$$$$
