_rank19
     RDKit          3D

 19 20  0  0  0  0  0  0  0  0999 V2000
   21.2994   -1.2622  -14.3603 C   0  0  0  0  0  0  0  0  0  0  0  0
   20.5474   -0.5123  -13.2995 C   0  0  0  0  0  0  0  0  0  0  0  0
   21.0236   -0.8539  -11.9048 C   0  0  2  0  0  0  0  0  0  0  0  0
   19.9012   -1.0417  -10.9414 C   0  0  0  0  0  0  0  0  0  0  0  0
   20.3197   -0.6668   -9.5468 C   0  0  0  0  0  0  0  0  0  0  0  0
   21.7238   -1.0615   -9.2182 C   0  0  1  0  0  0  0  0  0  0  0  0
   21.9341   -2.4371   -9.2619 O   0  0  0  0  0  0  0  0  0  0  0  0
   22.6600   -0.3082  -10.1305 C   0  0  1  0  0  0  0  0  0  0  0  0
   23.7560   -1.0725  -10.5364 O   0  0  0  0  0  0  0  0  0  0  0  0
   25.0715   -0.9036  -10.2255 C   0  0  0  0  0  0  0  0  0  0  0  0
   25.9930   -1.5229  -11.0789 C   0  0  0  0  0  0  0  0  0  0  0  0
   27.3441   -1.4270  -10.8722 C   0  0  0  0  0  0  0  0  0  0  0  0
   28.1756   -2.0489  -11.7330 F   0  0  0  0  0  0  0  0  0  0  0  0
   27.7742   -0.6998   -9.7943 C   0  0  0  0  0  0  0  0  0  0  0  0
   26.9181   -0.0744   -8.9287 C   0  0  0  0  0  0  0  0  0  0  0  0
   27.4259    0.6792   -7.8075 C   0  0  0  0  0  0  0  0  0  0  0  0
   27.8249    1.3021   -6.9118 N   0  0  0  0  0  0  0  0  0  0  0  0
   25.5498   -0.1853   -9.1583 C   0  0  0  0  0  0  0  0  0  0  0  0
   21.9369    0.2207  -11.3584 C   0  0  0  0  0  0  0  0  0  0  0  0
  2  1  1  1
  3  2  1  6
  4  3  1  6
  5  4  1  6
  5  6  1  0
  6  7  1  6
  6  8  1  0
  8  9  1  6
  9 10  1  0
 10 11  2  0
 11 12  1  0
 12 13  1  0
 12 14  2  0
 14 15  1  0
 15 16  1  0
 16 17  3  0
 15 18  2  0
 19  8  1  6
 19  3  1  0
 18 10  1  0
M  END
$$$$
