_rank5
     RDKit          3D

 19 20  0  0  0  0  0  0  0  0999 V2000
   19.2694    1.4305   -9.7087 C   0  0  0  0  0  0  0  0  0  0  0  0
   19.8211    0.9604  -11.0231 C   0  0  0  0  0  0  0  0  0  0  0  0
   20.5835   -0.3401  -10.8962 C   0  0  2  0  0  0  0  0  0  0  0  0
   19.6956   -1.5047  -10.6154 C   0  0  0  0  0  0  0  0  0  0  0  0
   20.4188   -2.5533   -9.8165 C   0  0  0  0  0  0  0  0  0  0  0  0
   21.8509   -2.7224  -10.2107 C   0  0  1  0  0  0  0  0  0  0  0  0
   22.0138   -3.1467  -11.5267 O   0  0  0  0  0  0  0  0  0  0  0  0
   22.5818   -1.4330   -9.9287 C   0  0  1  0  0  0  0  0  0  0  0  0
   23.5436   -1.1303  -10.8947 O   0  0  0  0  0  0  0  0  0  0  0  0
   24.8432   -0.7643  -10.7143 C   0  0  0  0  0  0  0  0  0  0  0  0
   25.5490   -0.4005  -11.8679 C   0  0  0  0  0  0  0  0  0  0  0  0
   26.8624   -0.0134  -11.8171 C   0  0  0  0  0  0  0  0  0  0  0  0
   27.4820    0.3235  -12.9668 F   0  0  0  0  0  0  0  0  0  0  0  0
   27.4739    0.0082  -10.5918 C   0  0  0  0  0  0  0  0  0  0  0  0
   26.8321   -0.3370   -9.4333 C   0  0  0  0  0  0  0  0  0  0  0  0
   27.5253   -0.2969   -8.1681 C   0  0  0  0  0  0  0  0  0  0  0  0
   28.1008   -0.2620   -7.1596 N   0  0  0  0  0  0  0  0  0  0  0  0
   25.4981   -0.7270   -9.5088 C   0  0  0  0  0  0  0  0  0  0  0  0
   21.6197   -0.2637   -9.7972 C   0  0  0  0  0  0  0  0  0  0  0  0
  2  1  1  1
  3  2  1  1
  4  3  1  6
  5  4  1  6
  5  6  1  0
  6  7  1  6
  6  8  1  0
  8  9  1  6
  9 10  1  0
 10 11  2  0
 11 12  1  0
 12 13  1  0
 12 14  2  0
 14 15  1  0
 15 16  1  0
 16 17  3  0
 15 18  2  0
 19  8  1  6
 19  3  1  0
 18 10  1  0
M  END
$$$$
