_rank9
     RDKit          3D

 19 20  0  0  0  0  0  0  0  0999 V2000
   18.8234    1.4329   -9.3312 C   0  0  0  0  0  0  0  0  0  0  0  0
   19.5550    1.3654  -10.6401 C   0  0  0  0  0  0  0  0  0  0  0  0
   20.3561    0.0906  -10.7875 C   0  0  2  0  0  0  0  0  0  0  0  0
   19.4956   -1.1177  -10.9383 C   0  0  0  0  0  0  0  0  0  0  0  0
   20.1757   -2.3367  -10.3795 C   0  0  0  0  0  0  0  0  0  0  0  0
   21.6475   -2.3715  -10.6396 C   0  0  1  0  0  0  0  0  0  0  0  0
   21.9668   -2.4134  -11.9941 O   0  0  0  0  0  0  0  0  0  0  0  0
   22.2872   -1.2008   -9.9349 C   0  0  1  0  0  0  0  0  0  0  0  0
   23.3313   -0.6302  -10.6658 O   0  0  0  0  0  0  0  0  0  0  0  0
   24.6571   -0.5809  -10.3567 C   0  0  0  0  0  0  0  0  0  0  0  0
   25.0106   -1.0261   -9.0768 C   0  0  0  0  0  0  0  0  0  0  0  0
   26.3118   -1.0258   -8.6475 C   0  0  0  0  0  0  0  0  0  0  0  0
   26.5818   -1.4677   -7.4022 F   0  0  0  0  0  0  0  0  0  0  0  0
   27.2695   -0.5724   -9.5153 C   0  0  0  0  0  0  0  0  0  0  0  0
   26.9801   -0.1263  -10.7765 C   0  0  0  0  0  0  0  0  0  0  0  0
   28.0292    0.3416  -11.6502 C   0  0  0  0  0  0  0  0  0  0  0  0
   28.8748    0.7352  -12.3426 N   0  0  0  0  0  0  0  0  0  0  0  0
   25.6515   -0.1357  -11.1912 C   0  0  0  0  0  0  0  0  0  0  0  0
   21.2662   -0.1261   -9.5992 C   0  0  0  0  0  0  0  0  0  0  0  0
  2  1  1  1
  3  2  1  1
  4  3  1  6
  5  4  1  6
  5  6  1  0
  6  7  1  6
  6  8  1  0
  8  9  1  6
  9 10  1  0
 10 11  2  0
 11 12  1  0
 12 13  1  0
 12 14  2  0
 14 15  1  0
 15 16  1  0
 16 17  3  0
 15 18  2  0
 19  8  1  6
 19  3  1  0
 18 10  1  0
M  END
$$$$
