_rank1
     RDKit          3D

 19 20  0  0  0  0  0  0  0  0999 V2000
   27.4675   -0.1485   -7.9617 C   0  0  0  0  0  0  0  0  0  0  0  0
   27.1625   -1.1989   -8.9897 C   0  0  0  0  0  0  0  0  0  0  0  0
   26.4580   -0.6313  -10.2023 C   0  0  2  0  0  0  0  0  0  0  0  0
   27.3739    0.1336  -11.0964 C   0  0  0  0  0  0  0  0  0  0  0  0
   26.6342    1.2254  -11.8186 C   0  0  0  0  0  0  0  0  0  0  0  0
   25.2546    0.8338  -12.2410 C   0  0  1  0  0  0  0  0  0  0  0  0
   25.2348   -0.2250  -13.1449 O   0  0  0  0  0  0  0  0  0  0  0  0
   24.4370    0.5493  -11.0054 C   0  0  1  0  0  0  0  0  0  0  0  0
   23.5539   -0.5196  -11.1716 O   0  0  0  0  0  0  0  0  0  0  0  0
   22.2418   -0.6011  -10.8148 C   0  0  0  0  0  0  0  0  0  0  0  0
   21.6215   -1.8400  -11.0182 C   0  0  0  0  0  0  0  0  0  0  0  0
   20.3052   -2.0480  -10.6994 C   0  0  0  0  0  0  0  0  0  0  0  0
   19.7708   -3.2661  -10.9219 F   0  0  0  0  0  0  0  0  0  0  0  0
   19.6038   -0.9977  -10.1697 C   0  0  0  0  0  0  0  0  0  0  0  0
   20.1598    0.2336   -9.9500 C   0  0  0  0  0  0  0  0  0  0  0  0
   19.3738    1.3063   -9.3894 C   0  0  0  0  0  0  0  0  0  0  0  0
   18.7284    2.1684   -8.9538 N   0  0  0  0  0  0  0  0  0  0  0  0
   21.4985    0.4218  -10.2813 C   0  0  0  0  0  0  0  0  0  0  0  0
   25.3229    0.2832   -9.7993 C   0  0  0  0  0  0  0  0  0  0  0  0
  2  1  1  1
  3  2  1  1
  4  3  1  6
  5  4  1  6
  5  6  1  0
  6  7  1  6
  6  8  1  0
  8  9  1  6
  9 10  1  0
 10 11  2  0
 11 12  1  0
 12 13  1  0
 12 14  2  0
 14 15  1  0
 15 16  1  0
 16 17  3  0
 15 18  2  0
 19  8  1  6
 19  3  1  0
 18 10  1  0
M  END
$$$$
