_rank7
     RDKit          3D

 19 20  0  0  0  0  0  0  0  0999 V2000
   26.8326   -0.4230  -13.0407 C   0  0  0  0  0  0  0  0  0  0  0  0
   27.6923   -0.4560  -11.8108 C   0  0  0  0  0  0  0  0  0  0  0  0
   26.9172   -0.1171  -10.5565 C   0  0  2  0  0  0  0  0  0  0  0  0
   27.7924    0.0241   -9.3576 C   0  0  0  0  0  0  0  0  0  0  0  0
   27.0540   -0.3548   -8.1038 C   0  0  0  0  0  0  0  0  0  0  0  0
   25.6233    0.0791   -8.0991 C   0  0  1  0  0  0  0  0  0  0  0  0
   25.4664    1.4609   -8.1638 O   0  0  0  0  0  0  0  0  0  0  0  0
   24.9021   -0.6336   -9.2164 C   0  0  1  0  0  0  0  0  0  0  0  0
   23.9502    0.1692   -9.8485 O   0  0  0  0  0  0  0  0  0  0  0  0
   22.6529   -0.1233  -10.1434 C   0  0  0  0  0  0  0  0  0  0  0  0
   21.6945    0.7924   -9.6916 C   0  0  0  0  0  0  0  0  0  0  0  0
   20.3567    0.6097   -9.9252 C   0  0  0  0  0  0  0  0  0  0  0  0
   19.4877    1.5309   -9.4612 F   0  0  0  0  0  0  0  0  0  0  0  0
   19.9777   -0.5071  -10.6214 C   0  0  0  0  0  0  0  0  0  0  0  0
   20.8714   -1.4339  -11.0859 C   0  0  0  0  0  0  0  0  0  0  0  0
   20.4168   -2.5940  -11.8140 C   0  0  0  0  0  0  0  0  0  0  0  0
   20.0623   -3.5223  -12.4158 N   0  0  0  0  0  0  0  0  0  0  0  0
   22.2252   -1.2277  -10.8369 C   0  0  0  0  0  0  0  0  0  0  0  0
   25.8737   -1.1694  -10.2551 C   0  0  0  0  0  0  0  0  0  0  0  0
  2  1  1  1
  3  2  1  6
  4  3  1  6
  5  4  1  6
  5  6  1  0
  6  7  1  6
  6  8  1  0
  8  9  1  6
  9 10  1  0
 10 11  2  0
 11 12  1  0
 12 13  1  0
 12 14  2  0
 14 15  1  0
 15 16  1  0
 16 17  3  0
 15 18  2  0
 19  8  1  6
 19  3  1  0
 18 10  1  0
M  END
$$$$
