_rank17
     RDKit          3D

 19 20  0  0  0  0  0  0  0  0999 V2000
   20.5360   -3.2375  -12.6031 C   0  0  0  0  0  0  0  0  0  0  0  0
   20.8287   -3.2142  -11.1311 C   0  0  0  0  0  0  0  0  0  0  0  0
   21.0111   -1.8087  -10.6019 C   0  0  2  0  0  0  0  0  0  0  0  0
   19.7301   -1.0489  -10.5284 C   0  0  0  0  0  0  0  0  0  0  0  0
   19.9663    0.4245  -10.7127 C   0  0  0  0  0  0  0  0  0  0  0  0
   21.2197    0.9145  -10.0615 C   0  0  1  0  0  0  0  0  0  0  0  0
   21.2204    0.7558   -8.6783 O   0  0  0  0  0  0  0  0  0  0  0  0
   22.3977    0.2376  -10.7177 C   0  0  1  0  0  0  0  0  0  0  0  0
   23.4148   -0.0798   -9.8151 O   0  0  0  0  0  0  0  0  0  0  0  0
   24.7595   -0.1176  -10.0292 C   0  0  0  0  0  0  0  0  0  0  0  0
   25.1780    0.0180  -11.3588 C   0  0  0  0  0  0  0  0  0  0  0  0
   26.5041   -0.0039  -11.7027 C   0  0  0  0  0  0  0  0  0  0  0  0
   26.8372    0.1316  -13.0026 F   0  0  0  0  0  0  0  0  0  0  0  0
   27.4209   -0.1641  -10.6979 C   0  0  0  0  0  0  0  0  0  0  0  0
   27.0677   -0.3010   -9.3827 C   0  0  0  0  0  0  0  0  0  0  0  0
   28.0759   -0.4677   -8.3636 C   0  0  0  0  0  0  0  0  0  0  0  0
   28.9001   -0.5905   -7.5542 N   0  0  0  0  0  0  0  0  0  0  0  0
   25.7148   -0.2757   -9.0566 C   0  0  0  0  0  0  0  0  0  0  0  0
   21.9762   -1.0206  -11.4590 C   0  0  0  0  0  0  0  0  0  0  0  0
  2  1  1  1
  3  2  1  6
  4  3  1  6
  5  4  1  6
  5  6  1  0
  6  7  1  1
  6  8  1  0
  8  9  1  1
  9 10  1  0
 10 11  2  0
 11 12  1  0
 12 13  1  0
 12 14  2  0
 14 15  1  0
 15 16  1  0
 16 17  3  0
 15 18  2  0
 19  8  1  6
 19  3  1  0
 18 10  1  0
M  END
$$$$
