_rank20
     RDKit          3D

 21 23  0  0  0  0  0  0  0  0999 V2000
   25.3280    0.2825  -12.9273 O   0  0  0  0  0  0  0  0  0  0  0  0
   26.2340    0.3220  -12.0709 N   0  0  0  0  0  4  0  0  0  0  0  0
   27.5317    0.5791  -12.4675 O   0  0  0  0  0  1  0  0  0  0  0  0
   25.8875    0.0970  -10.7020 C   0  0  0  0  0  0  0  0  0  0  0  0
   24.5624   -0.2686  -10.4234 C   0  0  0  0  0  0  0  0  0  0  0  0
   23.6152   -0.3858  -11.4739 N   0  0  0  0  0  0  0  0  0  0  0  0
   22.2818   -0.8032  -11.3430 C   0  0  0  0  0  0  0  0  0  0  0  0
   21.4376   -0.9960  -12.4109 C   0  0  0  0  0  0  0  0  0  0  0  0
   20.1195   -1.3882  -12.2413 C   0  0  0  0  0  0  0  0  0  0  0  0
   19.3061   -1.5711  -13.3136 F   0  0  0  0  0  0  0  0  0  0  0  0
   19.6252   -1.5956  -10.9707 C   0  0  0  0  0  0  0  0  0  0  0  0
   20.4575   -1.4079   -9.8848 C   0  0  0  0  0  0  0  0  0  0  0  0
   20.0113   -1.6019   -8.6037 F   0  0  0  0  0  0  0  0  0  0  0  0
   21.7619   -1.0189  -10.0654 C   0  0  0  0  0  0  0  0  0  0  0  0
   24.2660   -0.4772   -9.0981 C   0  0  0  0  0  0  0  0  0  0  0  0
   25.2042   -0.3398   -8.0753 C   0  0  0  0  0  0  0  0  0  0  0  0
   26.4988    0.0197   -8.3665 C   0  0  0  0  0  0  0  0  0  0  0  0
   27.6343    0.2390   -7.6643 N   0  0  0  0  0  0  0  0  0  0  0  0
   28.5939    0.5660   -8.4895 O   0  0  0  0  0  0  0  0  0  0  0  0
   28.1246    0.5664   -9.6915 N   0  0  0  0  0  0  0  0  0  0  0  0
   26.8085    0.2312   -9.6951 C   0  0  0  0  0  0  0  0  0  0  0  0
  1  2  2  0
  2  3  1  0
  2  4  1  0
  4  5  2  0
  5  6  1  0
  6  7  1  0
  7  8  2  0
  8  9  1  0
  9 10  1  0
  9 11  2  0
 11 12  1  0
 12 13  1  0
 12 14  2  0
  5 15  1  0
 15 16  2  0
 16 17  1  0
 17 18  2  0
 18 19  1  0
 19 20  1  0
 20 21  2  0
 21  4  1  0
 14  7  1  0
 21 17  1  0
M  CHG  2   2   1   3  -1
M  END
$$$$
