_rank2
     RDKit          3D

 23 26  0  0  0  0  0  0  0  0999 V2000
   17.8086   -2.3559  -10.3850 Br  0  0  0  0  0  0  0  0  0  0  0  0
   19.1751   -1.0296  -10.4011 C   0  0  0  0  0  0  0  0  0  0  0  0
   18.8710    0.2909  -10.1139 C   0  0  0  0  0  0  0  0  0  0  0  0
   19.8962    1.2168  -10.1381 C   0  0  0  0  0  0  0  0  0  0  0  0
   21.1701    0.8110  -10.4413 C   0  0  0  0  0  0  0  0  0  0  0  0
   21.4786   -0.5016  -10.7279 C   0  0  0  0  0  0  0  0  0  0  0  0
   22.8469   -0.8573  -11.0396 C   0  0  2  0  0  0  0  0  0  0  0  0
   23.8135   -0.5855   -9.9090 C   0  0  0  0  0  0  0  0  0  0  0  0
   25.1459   -1.1805  -10.1861 C   0  0  2  0  0  0  0  0  0  0  0  0
   26.1252   -0.5368   -9.2424 C   0  0  0  0  0  0  0  0  0  0  0  0
   26.6112   -1.3461   -8.2226 C   0  0  0  0  0  0  0  0  0  0  0  0
   27.5144   -0.8260   -7.3164 C   0  0  0  0  0  0  0  0  0  0  0  0
   27.8941    0.5007   -7.4766 C   0  0  0  0  0  0  0  0  0  0  0  0
   27.4114    1.2995   -8.4870 C   0  0  0  0  0  0  0  0  0  0  0  0
   26.5008    0.7614   -9.3940 C   0  0  0  0  0  0  0  0  0  0  0  0
   25.7256    1.9385  -10.9652 I   0  0  0  0  0  0  0  0  0  0  0  0
   25.5995   -0.9470  -11.5395 N   0  0  0  0  0  0  0  0  0  0  0  0
   26.7760   -1.0998  -12.1282 N   0  0  0  0  0  0  0  0  0  0  0  0
   26.7327   -0.7578  -13.4027 N   0  0  0  0  0  0  0  0  0  0  0  0
   25.4892   -0.3750  -13.6334 N   0  0  0  0  0  0  0  0  0  0  0  0
   24.7644   -0.4850  -12.4843 C   0  0  0  0  0  0  0  0  0  0  0  0
   23.3972   -0.2033  -12.1980 N   0  0  0  0  0  0  0  0  0  0  0  0
   20.4574   -1.4244  -10.7039 C   0  0  0  0  0  0  0  0  0  0  0  0
  1  2  1  0
  2  3  2  0
  3  4  1  0
  4  5  2  0
  5  6  1  0
  7  6  1  1
  8  7  1  1
  8  9  1  0
  9 10  1  1
 10 11  2  0
 11 12  1  0
 12 13  2  0
 13 14  1  0
 14 15  2  0
 15 16  1  0
  9 17  1  0
 17 18  1  0
 18 19  2  0
 19 20  1  0
 20 21  2  0
 21 22  1  0
  6 23  2  0
 23  2  1  0
 22  7  1  0
 15 10  1  0
 21 17  1  0
M  END
$$$$
