_rank1
     RDKit          3D

 21 23  0  0  0  0  0  0  0  0999 V2000
   25.0686    0.2992  -13.0384 O   0  0  0  0  0  0  0  0  0  0  0  0
   26.0112    0.3584  -12.2237 N   0  0  0  0  0  4  0  0  0  0  0  0
   27.2887    0.6148  -12.6817 O   0  0  0  0  0  1  0  0  0  0  0  0
   25.7268    0.1560  -10.8371 C   0  0  0  0  0  0  0  0  0  0  0  0
   24.4183   -0.2151  -10.4942 C   0  0  0  0  0  0  0  0  0  0  0  0
   23.4273   -0.3593  -11.4999 N   0  0  0  0  0  0  0  0  0  0  0  0
   22.0510   -0.5314  -11.2866 C   0  0  0  0  0  0  0  0  0  0  0  0
   21.3023   -1.5048  -11.9049 C   0  0  0  0  0  0  0  0  0  0  0  0
   19.9398   -1.6308  -11.6857 C   0  0  0  0  0  0  0  0  0  0  0  0
   19.2230   -2.6010  -12.3099 F   0  0  0  0  0  0  0  0  0  0  0  0
   19.3020   -0.7626  -10.8248 C   0  0  0  0  0  0  0  0  0  0  0  0
   20.0367    0.2215  -10.1933 C   0  0  0  0  0  0  0  0  0  0  0  0
   19.4467    1.1070   -9.3296 F   0  0  0  0  0  0  0  0  0  0  0  0
   21.3862    0.3367  -10.4187 C   0  0  0  0  0  0  0  0  0  0  0  0
   24.1820   -0.4014   -9.1536 C   0  0  0  0  0  0  0  0  0  0  0  0
   25.1626   -0.2376   -8.1755 C   0  0  0  0  0  0  0  0  0  0  0  0
   26.4401    0.1268   -8.5295 C   0  0  0  0  0  0  0  0  0  0  0  0
   27.6032    0.3681   -7.8819 N   0  0  0  0  0  0  0  0  0  0  0  0
   28.5229    0.6875   -8.7540 O   0  0  0  0  0  0  0  0  0  0  0  0
   28.0016    0.6618   -9.9342 N   0  0  0  0  0  0  0  0  0  0  0  0
   26.6897    0.3162   -9.8740 C   0  0  0  0  0  0  0  0  0  0  0  0
  1  2  2  0
  2  3  1  0
  2  4  1  0
  4  5  2  0
  5  6  1  0
  6  7  1  0
  7  8  2  0
  8  9  1  0
  9 10  1  0
  9 11  2  0
 11 12  1  0
 12 13  1  0
 12 14  2  0
  5 15  1  0
 15 16  2  0
 16 17  1  0
 17 18  2  0
 18 19  1  0
 19 20  1  0
 20 21  2  0
 21  4  1  0
 14  7  1  0
 21 17  1  0
M  CHG  2   2   1   3  -1
M  END
$$$$
