_rank14
     RDKit          3D

 21 23  0  0  0  0  0  0  0  0999 V2000
   25.7118    1.5846  -12.2874 O   0  0  0  0  0  0  0  0  0  0  0  0
   25.7541    0.3817  -11.9603 N   0  0  0  0  0  4  0  0  0  0  0  0
   26.0127   -0.5745  -12.9228 O   0  0  0  0  0  1  0  0  0  0  0  0
   25.5306    0.0403  -10.5899 C   0  0  0  0  0  0  0  0  0  0  0  0
   24.2117   -0.2355  -10.2004 C   0  0  0  0  0  0  0  0  0  0  0  0
   23.1539   -0.1538  -11.1431 N   0  0  0  0  0  0  0  0  0  0  0  0
   21.8180   -0.5221  -10.9218 C   0  0  0  0  0  0  0  0  0  0  0  0
   21.3545   -1.8106  -11.0458 C   0  0  0  0  0  0  0  0  0  0  0  0
   20.0226   -2.1330  -10.8401 C   0  0  0  0  0  0  0  0  0  0  0  0
   19.5904   -3.4141  -10.9697 F   0  0  0  0  0  0  0  0  0  0  0  0
   19.1237   -1.1440  -10.4999 C   0  0  0  0  0  0  0  0  0  0  0  0
   19.5697    0.1564  -10.3697 C   0  0  0  0  0  0  0  0  0  0  0  0
   18.7138    1.1725  -10.0335 F   0  0  0  0  0  0  0  0  0  0  0  0
   20.8919    0.4639  -10.5764 C   0  0  0  0  0  0  0  0  0  0  0  0
   24.0349   -0.5603   -8.8771 C   0  0  0  0  0  0  0  0  0  0  0  0
   25.0829   -0.6181   -7.9587 C   0  0  0  0  0  0  0  0  0  0  0  0
   26.3697   -0.3444   -8.3578 C   0  0  0  0  0  0  0  0  0  0  0  0
   27.5879   -0.3035   -7.7706 N   0  0  0  0  0  0  0  0  0  0  0  0
   28.4846    0.0256   -8.6629 O   0  0  0  0  0  0  0  0  0  0  0  0
   27.8957    0.1982   -9.7981 N   0  0  0  0  0  0  0  0  0  0  0  0
   26.5597   -0.0175   -9.6855 C   0  0  0  0  0  0  0  0  0  0  0  0
  1  2  2  0
  2  3  1  0
  2  4  1  0
  4  5  2  0
  5  6  1  0
  6  7  1  0
  7  8  2  0
  8  9  1  0
  9 10  1  0
  9 11  2  0
 11 12  1  0
 12 13  1  0
 12 14  2  0
  5 15  1  0
 15 16  2  0
 16 17  1  0
 17 18  2  0
 18 19  1  0
 19 20  1  0
 20 21  2  0
 21  4  1  0
 14  7  1  0
 21 17  1  0
M  CHG  2   2   1   3  -1
M  END
$$$$
