_rank19
     RDKit          3D

 23 26  0  0  0  0  0  0  0  0999 V2000
   18.2382    2.0671  -11.6230 Br  0  0  0  0  0  0  0  0  0  0  0  0
   19.2186    1.0844  -10.3193 C   0  0  0  0  0  0  0  0  0  0  0  0
   18.7755    1.0269   -9.0082 C   0  0  0  0  0  0  0  0  0  0  0  0
   19.5207    0.3016   -8.0987 C   0  0  0  0  0  0  0  0  0  0  0  0
   20.6634   -0.3339   -8.5108 C   0  0  0  0  0  0  0  0  0  0  0  0
   21.1092   -0.2803   -9.8142 C   0  0  0  0  0  0  0  0  0  0  0  0
   22.3254   -0.9764  -10.1775 C   0  0  2  0  0  0  0  0  0  0  0  0
   23.5675   -0.1219  -10.0618 C   0  0  0  0  0  0  0  0  0  0  0  0
   24.7985   -0.9391  -10.2132 C   0  0  2  0  0  0  0  0  0  0  0  0
   25.9320    0.0113  -10.4880 C   0  0  0  0  0  0  0  0  0  0  0  0
   25.8319    0.7583  -11.6556 C   0  0  0  0  0  0  0  0  0  0  0  0
   26.8341    1.6528  -11.9762 C   0  0  0  0  0  0  0  0  0  0  0  0
   27.9060    1.7588  -11.0989 C   0  0  0  0  0  0  0  0  0  0  0  0
   28.0026    1.0181   -9.9439 C   0  0  0  0  0  0  0  0  0  0  0  0
   26.9841    0.1196   -9.6332 C   0  0  0  0  0  0  0  0  0  0  0  0
   27.0770   -1.0442   -7.8746 I   0  0  0  0  0  0  0  0  0  0  0  0
   24.7209   -1.8814  -11.3077 N   0  0  0  0  0  0  0  0  0  0  0  0
   25.6338   -2.6223  -11.9174 N   0  0  0  0  0  0  0  0  0  0  0  0
   25.1060   -3.3507  -12.8839 N   0  0  0  0  0  0  0  0  0  0  0  0
   23.8159   -3.0649  -12.8902 N   0  0  0  0  0  0  0  0  0  0  0  0
   23.5534   -2.1500  -11.9147 C   0  0  0  0  0  0  0  0  0  0  0  0
   22.3407   -1.5203  -11.5103 N   0  0  0  0  0  0  0  0  0  0  0  0
   20.3669    0.4425  -10.7207 C   0  0  0  0  0  0  0  0  0  0  0  0
  1  2  1  0
  2  3  2  0
  3  4  1  0
  4  5  2  0
  5  6  1  0
  7  6  1  6
  8  7  1  1
  8  9  1  0
  9 10  1  6
 10 11  2  0
 11 12  1  0
 12 13  2  0
 13 14  1  0
 14 15  2  0
 15 16  1  0
  9 17  1  0
 17 18  1  0
 18 19  2  0
 19 20  1  0
 20 21  2  0
 21 22  1  0
  6 23  2  0
 23  2  1  0
 22  7  1  0
 15 10  1  0
 21 17  1  0
M  END
$$$$
