_rank4
     RDKit          3D

 23 26  0  0  0  0  0  0  0  0999 V2000
   18.5605    1.8510   -9.6430 Br  0  0  0  0  0  0  0  0  0  0  0  0
   19.4771    0.2690  -10.1758 C   0  0  0  0  0  0  0  0  0  0  0  0
   18.8169   -0.9486  -10.1951 C   0  0  0  0  0  0  0  0  0  0  0  0
   19.5241   -2.0682  -10.5889 C   0  0  0  0  0  0  0  0  0  0  0  0
   20.8424   -1.9476  -10.9454 C   0  0  0  0  0  0  0  0  0  0  0  0
   21.5045   -0.7387  -10.9280 C   0  0  0  0  0  0  0  0  0  0  0  0
   22.8978   -0.6870  -11.3177 C   0  0  2  0  0  0  0  0  0  0  0  0
   23.8522   -0.6694  -10.1450 C   0  0  0  0  0  0  0  0  0  0  0  0
   25.2565   -0.8552  -10.5918 C   0  0  2  0  0  0  0  0  0  0  0  0
   26.1448   -0.4280   -9.4550 C   0  0  0  0  0  0  0  0  0  0  0  0
   25.5229    0.2616   -8.4211 C   0  0  0  0  0  0  0  0  0  0  0  0
   26.2728    0.6866   -7.3421 C   0  0  0  0  0  0  0  0  0  0  0  0
   27.6314    0.3967   -7.3494 C   0  0  0  0  0  0  0  0  0  0  0  0
   28.2444   -0.2861   -8.3741 C   0  0  0  0  0  0  0  0  0  0  0  0
   27.4754   -0.7088   -9.4563 C   0  0  0  0  0  0  0  0  0  0  0  0
   28.3604   -1.7607  -11.0581 I   0  0  0  0  0  0  0  0  0  0  0  0
   25.5909   -0.0597  -11.7525 N   0  0  0  0  0  0  0  0  0  0  0  0
   26.7445    0.2416  -12.3290 N   0  0  0  0  0  0  0  0  0  0  0  0
   26.5750    1.0120  -13.3878 N   0  0  0  0  0  0  0  0  0  0  0  0
   25.2722    1.2077  -13.4891 N   0  0  0  0  0  0  0  0  0  0  0  0
   24.6385    0.5479  -12.4787 C   0  0  0  0  0  0  0  0  0  0  0  0
   23.2587    0.4383  -12.1399 N   0  0  0  0  0  0  0  0  0  0  0  0
   20.8002    0.3772  -10.5357 C   0  0  0  0  0  0  0  0  0  0  0  0
  1  2  1  0
  2  3  2  0
  3  4  1  0
  4  5  2  0
  5  6  1  0
  7  6  1  1
  8  7  1  1
  8  9  1  0
  9 10  1  1
 10 11  2  0
 11 12  1  0
 12 13  2  0
 13 14  1  0
 14 15  2  0
 15 16  1  0
  9 17  1  0
 17 18  1  0
 18 19  2  0
 19 20  1  0
 20 21  2  0
 21 22  1  0
  6 23  2  0
 23  2  1  0
 22  7  1  0
 15 10  1  0
 21 17  1  0
M  END
$$$$
