_rank10
     RDKit          3D

 23 26  0  0  0  0  0  0  0  0999 V2000
   18.2878   -2.7431  -10.6236 Br  0  0  0  0  0  0  0  0  0  0  0  0
   19.4998   -1.2854  -10.4421 C   0  0  0  0  0  0  0  0  0  0  0  0
   19.0525   -0.0573   -9.9831 C   0  0  0  0  0  0  0  0  0  0  0  0
   19.9693    0.9698   -9.8684 C   0  0  0  0  0  0  0  0  0  0  0  0
   21.2797    0.7508  -10.2067 C   0  0  0  0  0  0  0  0  0  0  0  0
   21.7305   -0.4690  -10.6639 C   0  0  0  0  0  0  0  0  0  0  0  0
   23.1291   -0.6272  -11.0026 C   0  0  2  0  0  0  0  0  0  0  0  0
   24.0608   -0.4251   -9.8289 C   0  0  0  0  0  0  0  0  0  0  0  0
   25.4494   -0.8275  -10.1693 C   0  0  2  0  0  0  0  0  0  0  0  0
   26.3537   -0.2306   -9.1254 C   0  0  0  0  0  0  0  0  0  0  0  0
   26.2494    1.1429   -8.9416 C   0  0  0  0  0  0  0  0  0  0  0  0
   27.0473    1.7636   -8.0007 C   0  0  0  0  0  0  0  0  0  0  0  0
   27.9257    0.9673   -7.2768 C   0  0  0  0  0  0  0  0  0  0  0  0
   28.0269   -0.3921   -7.4607 C   0  0  0  0  0  0  0  0  0  0  0  0
   27.2157   -1.0049   -8.4135 C   0  0  0  0  0  0  0  0  0  0  0  0
   27.3264   -3.0873   -8.7402 I   0  0  0  0  0  0  0  0  0  0  0  0
   25.8755   -0.3490  -11.4660 N   0  0  0  0  0  0  0  0  0  0  0  0
   27.0617   -0.2870  -12.0517 N   0  0  0  0  0  0  0  0  0  0  0  0
   26.9821    0.2338  -13.2624 N   0  0  0  0  0  0  0  0  0  0  0  0
   25.7047    0.5124  -13.4541 N   0  0  0  0  0  0  0  0  0  0  0  0
   24.9957    0.1568  -12.3456 C   0  0  0  0  0  0  0  0  0  0  0  0
   23.6061    0.2461  -12.0429 N   0  0  0  0  0  0  0  0  0  0  0  0
   20.8172   -1.4927  -10.7784 C   0  0  0  0  0  0  0  0  0  0  0  0
  1  2  1  0
  2  3  2  0
  3  4  1  0
  4  5  2  0
  5  6  1  0
  7  6  1  1
  8  7  1  1
  8  9  1  0
  9 10  1  1
 10 11  2  0
 11 12  1  0
 12 13  2  0
 13 14  1  0
 14 15  2  0
 15 16  1  0
  9 17  1  0
 17 18  1  0
 18 19  2  0
 19 20  1  0
 20 21  2  0
 21 22  1  0
  6 23  2  0
 23  2  1  0
 22  7  1  0
 15 10  1  0
 21 17  1  0
M  END
$$$$
