_rank3
     RDKit          3D

 21 23  0  0  0  0  0  0  0  0999 V2000
   24.9583    0.3577  -12.8717 O   0  0  0  0  0  0  0  0  0  0  0  0
   25.9061    0.3499  -12.0608 N   0  0  0  0  0  4  0  0  0  0  0  0
   27.1918    0.5635  -12.5180 O   0  0  0  0  0  1  0  0  0  0  0  0
   25.6189    0.1177  -10.6795 C   0  0  0  0  0  0  0  0  0  0  0  0
   24.3060   -0.2457  -10.3456 C   0  0  0  0  0  0  0  0  0  0  0  0
   23.3136   -0.3538  -11.3544 N   0  0  0  0  0  0  0  0  0  0  0  0
   21.9359   -0.5198  -11.1454 C   0  0  0  0  0  0  0  0  0  0  0  0
   21.2592   -1.6829  -11.4279 C   0  0  0  0  0  0  0  0  0  0  0  0
   19.8932   -1.8027  -11.2283 C   0  0  0  0  0  0  0  0  0  0  0  0
   19.2486   -2.9630  -11.5162 F   0  0  0  0  0  0  0  0  0  0  0  0
   19.1777   -0.7333  -10.7319 C   0  0  0  0  0  0  0  0  0  0  0  0
   19.8392    0.4435  -10.4412 C   0  0  0  0  0  0  0  0  0  0  0  0
   19.1707    1.5327   -9.9463 F   0  0  0  0  0  0  0  0  0  0  0  0
   21.1931    0.5504  -10.6434 C   0  0  0  0  0  0  0  0  0  0  0  0
   24.0670   -0.4613   -9.0098 C   0  0  0  0  0  0  0  0  0  0  0  0
   25.0493   -0.3328   -8.0281 C   0  0  0  0  0  0  0  0  0  0  0  0
   26.3312    0.0246   -8.3733 C   0  0  0  0  0  0  0  0  0  0  0  0
   27.4969    0.2364   -7.7201 N   0  0  0  0  0  0  0  0  0  0  0  0
   28.4206    0.5655   -8.5843 O   0  0  0  0  0  0  0  0  0  0  0  0
   27.8994    0.5745   -9.7648 N   0  0  0  0  0  0  0  0  0  0  0  0
   26.5834    0.2432   -9.7129 C   0  0  0  0  0  0  0  0  0  0  0  0
  1  2  2  0
  2  3  1  0
  2  4  1  0
  4  5  2  0
  5  6  1  0
  6  7  1  0
  7  8  2  0
  8  9  1  0
  9 10  1  0
  9 11  2  0
 11 12  1  0
 12 13  1  0
 12 14  2  0
  5 15  1  0
 15 16  2  0
 16 17  1  0
 17 18  2  0
 18 19  1  0
 19 20  1  0
 20 21  2  0
 21  4  1  0
 14  7  1  0
 21 17  1  0
M  CHG  2   2   1   3  -1
M  END
$$$$
