_rank14
     RDKit          3D

 23 26  0  0  0  0  0  0  0  0999 V2000
   18.9635   -0.7399   -7.9723 Br  0  0  0  0  0  0  0  0  0  0  0  0
   19.6021   -1.0776   -9.7344 C   0  0  0  0  0  0  0  0  0  0  0  0
   18.7374   -1.5330  -10.7160 C   0  0  0  0  0  0  0  0  0  0  0  0
   19.2474   -1.7636  -11.9791 C   0  0  0  0  0  0  0  0  0  0  0  0
   20.5772   -1.5392  -12.2255 C   0  0  0  0  0  0  0  0  0  0  0  0
   21.4424   -1.0861  -11.2526 C   0  0  0  0  0  0  0  0  0  0  0  0
   22.8349   -0.8714  -11.5853 C   0  0  2  0  0  0  0  0  0  0  0  0
   23.7423   -0.8155  -10.3771 C   0  0  0  0  0  0  0  0  0  0  0  0
   25.1725   -0.8327  -10.7776 C   0  0  2  0  0  0  0  0  0  0  0  0
   25.9726   -0.3748   -9.5884 C   0  0  0  0  0  0  0  0  0  0  0  0
   25.2424    0.1385   -8.5233 C   0  0  0  0  0  0  0  0  0  0  0  0
   25.9068    0.5794   -7.3957 C   0  0  0  0  0  0  0  0  0  0  0  0
   27.2927    0.4839   -7.3877 C   0  0  0  0  0  0  0  0  0  0  0  0
   28.0130   -0.0246   -8.4434 C   0  0  0  0  0  0  0  0  0  0  0  0
   27.3294   -0.4656   -9.5746 C   0  0  0  0  0  0  0  0  0  0  0  0
   28.3806   -1.2557  -11.2257 I   0  0  0  0  0  0  0  0  0  0  0  0
   25.4604    0.0512  -11.8857 N   0  0  0  0  0  0  0  0  0  0  0  0
   26.5948    0.4987  -12.4023 N   0  0  0  0  0  0  0  0  0  0  0  0
   26.3811    1.3006  -13.4293 N   0  0  0  0  0  0  0  0  0  0  0  0
   25.0690    1.3660  -13.5715 N   0  0  0  0  0  0  0  0  0  0  0  0
   24.4745    0.5938  -12.6186 C   0  0  0  0  0  0  0  0  0  0  0  0
   23.1032    0.3256  -12.3389 N   0  0  0  0  0  0  0  0  0  0  0  0
   20.9345   -0.8562   -9.9939 C   0  0  0  0  0  0  0  0  0  0  0  0
  1  2  1  0
  2  3  2  0
  3  4  1  0
  4  5  2  0
  5  6  1  0
  7  6  1  1
  8  7  1  1
  8  9  1  0
  9 10  1  1
 10 11  2  0
 11 12  1  0
 12 13  2  0
 13 14  1  0
 14 15  2  0
 15 16  1  0
  9 17  1  0
 17 18  1  0
 18 19  2  0
 19 20  1  0
 20 21  2  0
 21 22  1  0
  6 23  2  0
 23  2  1  0
 22  7  1  0
 15 10  1  0
 21 17  1  0
M  END
$$$$
