_rank19
     RDKit          3D

 21 23  0  0  0  0  0  0  0  0999 V2000
   25.1763    0.3246  -12.9082 O   0  0  0  0  0  0  0  0  0  0  0  0
   26.0722    0.2550  -12.0431 N   0  0  0  0  0  4  0  0  0  0  0  0
   27.3960    0.3270  -12.4301 O   0  0  0  0  0  1  0  0  0  0  0  0
   25.6872    0.1017  -10.6746 C   0  0  0  0  0  0  0  0  0  0  0  0
   24.3214   -0.0673  -10.4035 C   0  0  0  0  0  0  0  0  0  0  0  0
   23.3749   -0.0638  -11.4611 N   0  0  0  0  0  0  0  0  0  0  0  0
   22.0061   -0.3512  -11.3474 C   0  0  0  0  0  0  0  0  0  0  0  0
   21.5114   -1.4312  -10.6552 C   0  0  0  0  0  0  0  0  0  0  0  0
   20.1530   -1.6952  -10.5828 C   0  0  0  0  0  0  0  0  0  0  0  0
   19.6904   -2.7697   -9.8926 F   0  0  0  0  0  0  0  0  0  0  0  0
   19.2586   -0.8595  -11.2178 C   0  0  0  0  0  0  0  0  0  0  0  0
   19.7355    0.2312  -11.9178 C   0  0  0  0  0  0  0  0  0  0  0  0
   18.8853    1.0895  -12.5646 F   0  0  0  0  0  0  0  0  0  0  0  0
   21.0839    0.4825  -11.9827 C   0  0  0  0  0  0  0  0  0  0  0  0
   23.9887   -0.2121   -9.0783 C   0  0  0  0  0  0  0  0  0  0  0  0
   24.9293   -0.1947   -8.0488 C   0  0  0  0  0  0  0  0  0  0  0  0
   26.2641   -0.0276   -8.3326 C   0  0  0  0  0  0  0  0  0  0  0  0
   27.4141    0.0380   -7.6229 N   0  0  0  0  0  0  0  0  0  0  0  0
   28.4165    0.2128   -8.4434 O   0  0  0  0  0  0  0  0  0  0  0  0
   27.9608    0.2624   -9.6497 N   0  0  0  0  0  0  0  0  0  0  0  0
   26.6105    0.1181   -9.6610 C   0  0  0  0  0  0  0  0  0  0  0  0
  1  2  2  0
  2  3  1  0
  2  4  1  0
  4  5  2  0
  5  6  1  0
  6  7  1  0
  7  8  2  0
  8  9  1  0
  9 10  1  0
  9 11  2  0
 11 12  1  0
 12 13  1  0
 12 14  2  0
  5 15  1  0
 15 16  2  0
 16 17  1  0
 17 18  2  0
 18 19  1  0
 19 20  1  0
 20 21  2  0
 21  4  1  0
 14  7  1  0
 21 17  1  0
M  CHG  2   2   1   3  -1
M  END
$$$$
