_rank3
     RDKit          3D

 23 26  0  0  0  0  0  0  0  0999 V2000
   17.7072   -2.4111  -11.1757 Br  0  0  0  0  0  0  0  0  0  0  0  0
   19.0387   -1.1258  -10.7268 C   0  0  0  0  0  0  0  0  0  0  0  0
   18.6873    0.0492  -10.0829 C   0  0  0  0  0  0  0  0  0  0  0  0
   19.6886    0.9509   -9.7780 C   0  0  0  0  0  0  0  0  0  0  0  0
   20.9860    0.6642  -10.1155 C   0  0  0  0  0  0  0  0  0  0  0  0
   21.3417   -0.5034  -10.7563 C   0  0  0  0  0  0  0  0  0  0  0  0
   22.7325   -0.7390  -11.0819 C   0  0  2  0  0  0  0  0  0  0  0  0
   23.6722   -0.5042   -9.9208 C   0  0  0  0  0  0  0  0  0  0  0  0
   25.0431   -0.9831  -10.2333 C   0  0  2  0  0  0  0  0  0  0  0  0
   25.9716   -0.3613   -9.2258 C   0  0  0  0  0  0  0  0  0  0  0  0
   25.4074   -0.0302   -7.9997 C   0  0  0  0  0  0  0  0  0  0  0  0
   26.1968    0.5446   -7.0232 C   0  0  0  0  0  0  0  0  0  0  0  0
   27.5349    0.7642   -7.3251 C   0  0  0  0  0  0  0  0  0  0  0  0
   28.0908    0.4354   -8.5396 C   0  0  0  0  0  0  0  0  0  0  0  0
   27.2823   -0.1438   -9.5154 C   0  0  0  0  0  0  0  0  0  0  0  0
   28.0791   -0.6698  -11.3979 I   0  0  0  0  0  0  0  0  0  0  0  0
   25.4877   -0.6020  -11.5558 N   0  0  0  0  0  0  0  0  0  0  0  0
   26.6752   -0.6243  -12.1419 N   0  0  0  0  0  0  0  0  0  0  0  0
   26.6164   -0.1752  -13.3822 N   0  0  0  0  0  0  0  0  0  0  0  0
   25.3514    0.1432  -13.5930 N   0  0  0  0  0  0  0  0  0  0  0  0
   24.6290   -0.1150  -12.4663 C   0  0  0  0  0  0  0  0  0  0  0  0
   23.2444    0.0493  -12.1724 N   0  0  0  0  0  0  0  0  0  0  0  0
   20.3442   -1.4022  -11.0603 C   0  0  0  0  0  0  0  0  0  0  0  0
  1  2  1  0
  2  3  2  0
  3  4  1  0
  4  5  2  0
  5  6  1  0
  7  6  1  1
  8  7  1  1
  8  9  1  0
  9 10  1  1
 10 11  2  0
 11 12  1  0
 12 13  2  0
 13 14  1  0
 14 15  2  0
 15 16  1  0
  9 17  1  0
 17 18  1  0
 18 19  2  0
 19 20  1  0
 20 21  2  0
 21 22  1  0
  6 23  2  0
 23  2  1  0
 22  7  1  0
 15 10  1  0
 21 17  1  0
M  END
$$$$
