_rank13
     RDKit          3D

 21 23  0  0  0  0  0  0  0  0999 V2000
   26.9807    0.3086  -12.3799 O   0  0  0  0  0  0  0  0  0  0  0  0
   25.8082    0.3045  -11.9543 N   0  0  0  0  0  4  0  0  0  0  0  0
   24.7666    0.5287  -12.8331 O   0  0  0  0  0  1  0  0  0  0  0  0
   25.5900    0.0660  -10.5614 C   0  0  0  0  0  0  0  0  0  0  0  0
   24.2609   -0.0226  -10.1222 C   0  0  0  0  0  0  0  0  0  0  0  0
   23.1904    0.1406  -11.0397 N   0  0  0  0  0  0  0  0  0  0  0  0
   21.8796   -0.3325  -10.8745 C   0  0  0  0  0  0  0  0  0  0  0  0
   21.5577   -1.6668  -10.7956 C   0  0  0  0  0  0  0  0  0  0  0  0
   20.2483   -2.0974  -10.6539 C   0  0  0  0  0  0  0  0  0  0  0  0
   19.9572   -3.4220  -10.5791 F   0  0  0  0  0  0  0  0  0  0  0  0
   19.2272   -1.1728  -10.5880 C   0  0  0  0  0  0  0  0  0  0  0  0
   19.5300    0.1723  -10.6646 C   0  0  0  0  0  0  0  0  0  0  0  0
   18.5492    1.1276  -10.6037 F   0  0  0  0  0  0  0  0  0  0  0  0
   20.8314    0.5870  -10.8053 C   0  0  0  0  0  0  0  0  0  0  0  0
   24.0896   -0.2529   -8.7785 C   0  0  0  0  0  0  0  0  0  0  0  0
   25.1525   -0.3926   -7.8864 C   0  0  0  0  0  0  0  0  0  0  0  0
   26.4492   -0.3026   -8.3342 C   0  0  0  0  0  0  0  0  0  0  0  0
   27.6821   -0.3831   -7.7828 N   0  0  0  0  0  0  0  0  0  0  0  0
   28.5823   -0.2155   -8.7155 O   0  0  0  0  0  0  0  0  0  0  0  0
   27.9817   -0.0307   -9.8427 N   0  0  0  0  0  0  0  0  0  0  0  0
   26.6337   -0.0720   -9.6828 C   0  0  0  0  0  0  0  0  0  0  0  0
  1  2  2  0
  2  3  1  0
  2  4  1  0
  4  5  2  0
  5  6  1  0
  6  7  1  0
  7  8  2  0
  8  9  1  0
  9 10  1  0
  9 11  2  0
 11 12  1  0
 12 13  1  0
 12 14  2  0
  5 15  1  0
 15 16  2  0
 16 17  1  0
 17 18  2  0
 18 19  1  0
 19 20  1  0
 20 21  2  0
 21  4  1  0
 14  7  1  0
 21 17  1  0
M  CHG  2   2   1   3  -1
M  END
$$$$
