_rank6
     RDKit          3D

 21 23  0  0  0  0  0  0  0  0999 V2000
   24.9374   -0.0711  -12.7545 O   0  0  0  0  0  0  0  0  0  0  0  0
   25.8767   -0.0117  -11.9358 N   0  0  0  0  0  4  0  0  0  0  0  0
   27.1737    0.0956  -12.3980 O   0  0  0  0  0  1  0  0  0  0  0  0
   25.5679   -0.0582  -10.5404 C   0  0  0  0  0  0  0  0  0  0  0  0
   24.2229   -0.2315  -10.1825 C   0  0  0  0  0  0  0  0  0  0  0  0
   23.2224   -0.3352  -11.1838 N   0  0  0  0  0  0  0  0  0  0  0  0
   21.8568   -0.5753  -10.9673 C   0  0  0  0  0  0  0  0  0  0  0  0
   21.2224   -1.7387  -11.3337 C   0  0  0  0  0  0  0  0  0  0  0  0
   19.8665   -1.9315  -11.1229 C   0  0  0  0  0  0  0  0  0  0  0  0
   19.2638   -3.0904  -11.4952 F   0  0  0  0  0  0  0  0  0  0  0  0
   19.1180   -0.9371  -10.5288 C   0  0  0  0  0  0  0  0  0  0  0  0
   19.7369    0.2387  -10.1527 C   0  0  0  0  0  0  0  0  0  0  0  0
   19.0346    1.2548   -9.5592 F   0  0  0  0  0  0  0  0  0  0  0  0
   21.0812    0.4183  -10.3670 C   0  0  0  0  0  0  0  0  0  0  0  0
   23.9639   -0.2720   -8.8338 C   0  0  0  0  0  0  0  0  0  0  0  0
   24.9566   -0.1499   -7.8618 C   0  0  0  0  0  0  0  0  0  0  0  0
   26.2701    0.0198   -8.2306 C   0  0  0  0  0  0  0  0  0  0  0  0
   27.4538    0.1675   -7.5923 N   0  0  0  0  0  0  0  0  0  0  0  0
   28.4071    0.2935   -8.4776 O   0  0  0  0  0  0  0  0  0  0  0  0
   27.8877    0.2332   -9.6573 N   0  0  0  0  0  0  0  0  0  0  0  0
   26.5426    0.0613   -9.5833 C   0  0  0  0  0  0  0  0  0  0  0  0
  1  2  2  0
  2  3  1  0
  2  4  1  0
  4  5  2  0
  5  6  1  0
  6  7  1  0
  7  8  2  0
  8  9  1  0
  9 10  1  0
  9 11  2  0
 11 12  1  0
 12 13  1  0
 12 14  2  0
  5 15  1  0
 15 16  2  0
 16 17  1  0
 17 18  2  0
 18 19  1  0
 19 20  1  0
 20 21  2  0
 21  4  1  0
 14  7  1  0
 21 17  1  0
M  CHG  2   2   1   3  -1
M  END
$$$$
