_rank18
     RDKit          3D

 19 20  0  0  0  0  0  0  0  0999 V2000
   22.5207    0.7946  -12.9054 C   0  0  0  0  0  0  0  0  0  0  0  0
   22.4752    0.4151  -11.4388 C   0  0  1  0  0  0  0  0  0  0  0  0
   21.1075    0.6768  -10.9248 C   0  0  0  0  0  0  0  0  0  0  0  0
   20.6897   -0.1483   -9.7600 C   0  0  1  0  0  0  0  0  0  0  0  0
   19.1679   -0.0269   -9.6336 C   0  0  0  0  0  0  0  0  0  0  0  0
   21.0548   -1.6079   -9.8910 C   0  0  0  0  0  0  0  0  0  0  0  0
   21.6684   -1.9061  -11.2384 C   0  0  1  0  0  0  0  0  0  0  0  0
   20.8710   -1.5708  -12.2998 O   0  0  0  0  0  0  0  0  0  0  0  0
   22.9201   -1.0189  -11.3240 C   0  0  2  0  0  0  0  0  0  0  0  0
   23.6553   -1.1987  -10.1478 O   0  0  0  0  0  0  0  0  0  0  0  0
   24.9911   -0.9513   -9.9734 C   0  0  0  0  0  0  0  0  0  0  0  0
   25.8856   -1.4317  -10.9242 C   0  0  0  0  0  0  0  0  0  0  0  0
   27.2229   -1.2207  -10.8103 C   0  0  0  0  0  0  0  0  0  0  0  0
   28.0712   -1.7030  -11.7562 F   0  0  0  0  0  0  0  0  0  0  0  0
   27.7050   -0.5205   -9.7377 C   0  0  0  0  0  0  0  0  0  0  0  0
   26.8737   -0.0256   -8.7738 C   0  0  0  0  0  0  0  0  0  0  0  0
   27.3503    0.7131   -7.6366 C   0  0  0  0  0  0  0  0  0  0  0  0
   27.7335    1.3209   -6.7189 N   0  0  0  0  0  0  0  0  0  0  0  0
   25.5036   -0.2588   -8.9188 C   0  0  0  0  0  0  0  0  0  0  0  0
  2  1  1  6
  3  2  1  6
  3  4  1  0
  4  5  1  6
  4  6  1  0
  6  7  1  6
  7  8  1  6
  7  9  1  0
  9 10  1  1
 10 11  1  0
 11 12  2  0
 12 13  1  0
 13 14  1  0
 13 15  2  0
 15 16  1  0
 16 17  1  0
 17 18  3  0
 16 19  2  0
  9  2  1  0
 19 11  1  0
M  END
$$$$
