_rank10
     RDKit          3D

 19 20  0  0  0  0  0  0  0  0999 V2000
   21.8706   -1.0594  -13.3282 C   0  0  0  0  0  0  0  0  0  0  0  0
   21.9149   -0.3628  -11.9829 C   0  0  1  0  0  0  0  0  0  0  0  0
   20.5432    0.0878  -11.6383 C   0  0  0  0  0  0  0  0  0  0  0  0
   20.2589    0.2288  -10.1853 C   0  0  1  0  0  0  0  0  0  0  0  0
   18.7379    0.3065  -10.0204 C   0  0  0  0  0  0  0  0  0  0  0  0
   20.7833   -0.9169   -9.3527 C   0  0  0  0  0  0  0  0  0  0  0  0
   21.3840   -1.9998  -10.2173 C   0  0  1  0  0  0  0  0  0  0  0  0
   20.5205   -2.5118  -11.1485 O   0  0  0  0  0  0  0  0  0  0  0  0
   22.5234   -1.3201  -10.9926 C   0  0  2  0  0  0  0  0  0  0  0  0
   23.3110   -0.6202  -10.0729 O   0  0  0  0  0  0  0  0  0  0  0  0
   24.6792   -0.6059  -10.0129 C   0  0  0  0  0  0  0  0  0  0  0  0
   25.3965   -1.1597  -11.0684 C   0  0  0  0  0  0  0  0  0  0  0  0
   26.7550   -1.1775  -11.0706 C   0  0  0  0  0  0  0  0  0  0  0  0
   27.4269   -1.7260  -12.1169 F   0  0  0  0  0  0  0  0  0  0  0  0
   27.4370   -0.6396  -10.0130 C   0  0  0  0  0  0  0  0  0  0  0  0
   26.7855   -0.0827   -8.9498 C   0  0  0  0  0  0  0  0  0  0  0  0
   27.4741    0.4896   -7.8254 C   0  0  0  0  0  0  0  0  0  0  0  0
   28.0291    0.9630   -6.9163 N   0  0  0  0  0  0  0  0  0  0  0  0
   25.3884   -0.0793   -8.9764 C   0  0  0  0  0  0  0  0  0  0  0  0
  2  1  1  6
  3  2  1  6
  3  4  1  0
  4  5  1  6
  4  6  1  0
  6  7  1  6
  7  8  1  6
  7  9  1  0
  9 10  1  1
 10 11  1  0
 11 12  2  0
 12 13  1  0
 13 14  1  0
 13 15  2  0
 15 16  1  0
 16 17  1  0
 17 18  3  0
 16 19  2  0
  9  2  1  0
 19 11  1  0
M  END
$$$$
