_rank9
     RDKit          3D

 19 20  0  0  0  0  0  0  0  0999 V2000
   21.8699   -0.8415  -13.3395 C   0  0  0  0  0  0  0  0  0  0  0  0
   21.9527   -0.3255  -11.9168 C   0  0  1  0  0  0  0  0  0  0  0  0
   20.5767   -0.0491  -11.4333 C   0  0  0  0  0  0  0  0  0  0  0  0
   20.3856   -0.1252   -9.9603 C   0  0  1  0  0  0  0  0  0  0  0  0
   18.8788   -0.2068   -9.6965 C   0  0  0  0  0  0  0  0  0  0  0  0
   21.0589   -1.3181   -9.3243 C   0  0  0  0  0  0  0  0  0  0  0  0
   21.6828   -2.2203  -10.3624 C   0  0  1  0  0  0  0  0  0  0  0  0
   20.7999   -2.6817  -11.3018 O   0  0  0  0  0  0  0  0  0  0  0  0
   22.7054   -1.3454  -11.1041 C   0  0  2  0  0  0  0  0  0  0  0  0
   23.4968   -0.7037  -10.1459 O   0  0  0  0  0  0  0  0  0  0  0  0
   24.8638   -0.6203  -10.1382 C   0  0  0  0  0  0  0  0  0  0  0  0
   25.5535   -0.9036  -11.3126 C   0  0  0  0  0  0  0  0  0  0  0  0
   26.9093   -0.8393  -11.3720 C   0  0  0  0  0  0  0  0  0  0  0  0
   27.5540   -1.1220  -12.5345 F   0  0  0  0  0  0  0  0  0  0  0  0
   27.6162   -0.4885  -10.2538 C   0  0  0  0  0  0  0  0  0  0  0  0
   26.9923   -0.1998   -9.0738 C   0  0  0  0  0  0  0  0  0  0  0  0
   27.7074    0.1714   -7.8835 C   0  0  0  0  0  0  0  0  0  0  0  0
   28.2870    0.4626   -6.9151 N   0  0  0  0  0  0  0  0  0  0  0  0
   25.5973   -0.2745   -9.0442 C   0  0  0  0  0  0  0  0  0  0  0  0
  2  1  1  6
  3  2  1  6
  3  4  1  0
  4  5  1  6
  4  6  1  0
  6  7  1  6
  7  8  1  6
  7  9  1  0
  9 10  1  1
 10 11  1  0
 11 12  2  0
 12 13  1  0
 13 14  1  0
 13 15  2  0
 15 16  1  0
 16 17  1  0
 17 18  3  0
 16 19  2  0
  9  2  1  0
 19 11  1  0
M  END
$$$$
