_rank14
     RDKit          3D

 19 20  0  0  0  0  0  0  0  0999 V2000
   21.6657    0.4102  -12.9598 C   0  0  0  0  0  0  0  0  0  0  0  0
   21.8177    0.1449  -11.4754 C   0  0  1  0  0  0  0  0  0  0  0  0
   20.4654    0.0620  -10.8689 C   0  0  0  0  0  0  0  0  0  0  0  0
   20.3654   -0.7549   -9.6301 C   0  0  1  0  0  0  0  0  0  0  0  0
   18.8805   -1.0437   -9.3892 C   0  0  0  0  0  0  0  0  0  0  0  0
   21.1121   -2.0653   -9.7083 C   0  0  0  0  0  0  0  0  0  0  0  0
   21.7002   -2.2863  -11.0817 C   0  0  1  0  0  0  0  0  0  0  0  0
   20.7772   -2.2623  -12.0929 O   0  0  0  0  0  0  0  0  0  0  0  0
   22.6490   -1.1006  -11.3167 C   0  0  2  0  0  0  0  0  0  0  0  0
   23.4762   -0.9837  -10.1950 O   0  0  0  0  0  0  0  0  0  0  0  0
   24.8240   -0.7400  -10.1956 C   0  0  0  0  0  0  0  0  0  0  0  0
   25.4712   -0.5872  -11.4175 C   0  0  0  0  0  0  0  0  0  0  0  0
   26.8060   -0.3439  -11.4875 C   0  0  0  0  0  0  0  0  0  0  0  0
   27.4091   -0.1995  -12.6968 F   0  0  0  0  0  0  0  0  0  0  0  0
   27.5339   -0.2462  -10.3327 C   0  0  0  0  0  0  0  0  0  0  0  0
   26.9518   -0.3874   -9.1055 C   0  0  0  0  0  0  0  0  0  0  0  0
   27.6899   -0.2901   -7.8759 C   0  0  0  0  0  0  0  0  0  0  0  0
   28.2968   -0.2150   -6.8837 N   0  0  0  0  0  0  0  0  0  0  0  0
   25.5775   -0.6370   -9.0660 C   0  0  0  0  0  0  0  0  0  0  0  0
  2  1  1  6
  3  2  1  6
  3  4  1  0
  4  5  1  6
  4  6  1  0
  6  7  1  6
  7  8  1  6
  7  9  1  0
  9 10  1  1
 10 11  1  0
 11 12  2  0
 12 13  1  0
 13 14  1  0
 13 15  2  0
 15 16  1  0
 16 17  1  0
 17 18  3  0
 16 19  2  0
  9  2  1  0
 19 11  1  0
M  END
$$$$
