_rank7
     RDKit          3D

 19 20  0  0  0  0  0  0  0  0999 V2000
   21.5890   -2.5733  -12.4822 C   0  0  0  0  0  0  0  0  0  0  0  0
   21.7094   -1.2064  -11.8388 C   0  0  1  0  0  0  0  0  0  0  0  0
   20.3500   -0.6253  -11.7053 C   0  0  0  0  0  0  0  0  0  0  0  0
   20.1798    0.3672  -10.6107 C   0  0  1  0  0  0  0  0  0  0  0  0
   18.6756    0.5440  -10.3811 C   0  0  0  0  0  0  0  0  0  0  0  0
   20.8274   -0.0490   -9.3114 C   0  0  0  0  0  0  0  0  0  0  0  0
   21.4079   -1.4402   -9.4029 C   0  0  1  0  0  0  0  0  0  0  0  0
   20.4971   -2.4017   -9.7506 O   0  0  0  0  0  0  0  0  0  0  0  0
   22.4442   -1.3779  -10.5358 C   0  0  2  0  0  0  0  0  0  0  0  0
   23.2692   -0.2727  -10.3030 O   0  0  0  0  0  0  0  0  0  0  0  0
   24.6384   -0.2673  -10.2724 C   0  0  0  0  0  0  0  0  0  0  0  0
   25.2779   -0.5978   -9.0821 C   0  0  0  0  0  0  0  0  0  0  0  0
   26.6330   -0.6114   -8.9849 C   0  0  0  0  0  0  0  0  0  0  0  0
   27.2279   -0.9387   -7.8076 F   0  0  0  0  0  0  0  0  0  0  0  0
   27.3896   -0.2933  -10.0801 C   0  0  0  0  0  0  0  0  0  0  0  0
   26.8163    0.0389  -11.2742 C   0  0  0  0  0  0  0  0  0  0  0  0
   27.5843    0.3774  -12.4411 C   0  0  0  0  0  0  0  0  0  0  0  0
   28.2075    0.6418  -13.3899 N   0  0  0  0  0  0  0  0  0  0  0  0
   25.4206    0.0440  -11.3428 C   0  0  0  0  0  0  0  0  0  0  0  0
  2  1  1  1
  3  2  1  6
  3  4  1  0
  4  5  1  1
  4  6  1  0
  6  7  1  6
  7  8  1  6
  7  9  1  0
  9 10  1  1
 10 11  1  0
 11 12  2  0
 12 13  1  0
 13 14  1  0
 13 15  2  0
 15 16  1  0
 16 17  1  0
 17 18  3  0
 16 19  2  0
  9  2  1  0
 19 11  1  0
M  END
$$$$
